************************************************************************
* auCdl Netlist:
* 
* Library Name:  civicR
* Top Cell Name: DLDO_TOP
* View Name:     schematic
* Netlisted on:  Mar 22 19:27:06 2019
************************************************************************

*.BIPOLAR
*.RESI = 2000 
*.RESVAL
*.CAPVAL
*.DIOPERI
*.DIOAREA
*.EQUATION
*.SCALE METER
*.MEGA
.PARAM



************************************************************************
* Library Name: tcbn65lp
* Cell Name:    DFQD1
* View Name:    schematic
************************************************************************

.SUBCKT DFQD1 CP D Q VDD VSS
*.PININFO CP:I D:I Q:O VDD:B VSS:B
MMI53-M_u2 net7 net13 VSS VSS nch l=LA w=WAC m=1
MMI4 net24 net63 VSS VSS nch l=LA w=WAB m=1
MMI56 net37 net7 VSS VSS nch l=LA w=WA m=1
MMI13-M_u2 net11 net67 VSS VSS nch l=LA w=WAC m=1
MMI50 net11 net25 net13 VSS nch l=LA w=WD m=1
MMI32-M_u2 net25 net63 VSS VSS nch l=LA w=WE m=1
MMI5 net67 D net24 VSS nch l=LA w=WAB m=1
MMI31-M_u2 net63 CP VSS VSS nch l=LA w=WE m=1
MMI49 net13 net63 net37 VSS nch l=LA w=WA m=1
MMI48 net9 net11 VSS VSS nch l=LA w=WA m=1
MMI27-M_u2 Q net7 VSS VSS nch l=LA w=WAC m=1
MMI47 net67 net25 net9 VSS nch l=LA w=WA m=1
MMI53-M_u3 net7 net13 VDD VDD pch l=LA w=WAM m=1
MMI32-M_u3 net25 net63 VDD VDD pch l=LA w=WL m=1
MMI43 net56 net11 VDD VDD pch l=LA w=WA m=1
MMI6 net67 D net49 VDD pch l=LA w=WAI m=1
MMI31-M_u3 net63 CP VDD VDD pch l=LA w=WL m=1
MMI27-M_u3 Q net7 VDD VDD pch l=LA w=WAM m=1
MMI57 net13 net25 net72 VDD pch l=LA w=WA m=1
MMI13-M_u3 net11 net67 VDD VDD pch l=LA w=WAM m=1
MMI52 net11 net63 net13 VDD pch l=LA w=WL m=1
MMI51 net72 net7 VDD VDD pch l=LA w=WA m=1
MMI45 net67 net63 net56 VDD pch l=LA w=WA m=1
MMI7 net49 net25 VDD VDD pch l=LA w=WAI m=1
.ENDS

************************************************************************
* Library Name: tcbn65lp
* Cell Name:    INVD1
* View Name:    schematic
************************************************************************

.SUBCKT INVD1 I VDD VSS ZN
*.PININFO I:I ZN:O VDD:B VSS:B
MMU1-M_u2 ZN I VSS VSS nch l=LA w=WAC m=1
MMU1-M_u3 ZN I VDD VDD pch l=LA w=WAM m=1
.ENDS

************************************************************************
* Library Name: civic
* Cell Name:    ULDO4HVT
* View Name:    schematic
************************************************************************

.SUBCKT ULDO4HVT A D EN RS VDD VO VSS Z
*.PININFO A:I D:I EN:I RS:I Z:O VDD:B VO:B VSS:B
MM16 VSS VO VSS VSS nch_hvt l=LD w=WAO m=1
MM18 Z RS net027 VSS nch_hvt l=LA w=WAC m=1
MMI1-M_u3 net027 net020 VSS VSS nch_hvt l=LA w=WAC m=1
MM14 net021 EN VSS VSS nch_hvt l=LA w=WH m=1
MM13 net21 D net021 VSS nch_hvt l=LA w=WH m=1
MM20 net020 A VSS VSS nch_hvt l=LA w=WAC m=1
MM10 VO net21 VDD VDD pch_hvt l=LA w=WAP m=1
MMI1-M_u2 Z RS VO VDD pch_hvt l=LA w=WAM m=1
MM15 net21 EN VDD VDD pch_hvt l=LA w=WH m=1
MM12 net21 D VDD VDD pch_hvt l=LA w=WH m=1
MM19 net020 A VO VDD pch_hvt l=LA w=WAM m=1
MM17 Z net020 VO VDD pch_hvt l=LA w=WAM m=1
.ENDS

************************************************************************
* Library Name: tcbn65lphvt
* Cell Name:    DCAP16HVT
* View Name:    schematic
************************************************************************

.SUBCKT DCAP16HVT VDD VSS
*.PININFO VDD:B VSS:B
MMI4 VSS net11 VSS VSS nch_hvt l=LB w=WV m=1
MMI8 VSS net11 VSS VSS nch_hvt l=LB w=WV m=1
MM_u2 net5 net11 VSS VSS nch_hvt l=LA w=WV m=1
MMI7 VSS net11 VSS VSS nch_hvt l=LB w=WV m=1
MMI3 VDD net5 VDD VDD pch_hvt l=LB w=WAG m=1
MMI6 VDD net5 VDD VDD pch_hvt l=LB w=WAG m=1
MM_u1 net11 net5 VDD VDD pch_hvt l=LA w=WAC m=1
MMI5 VDD net5 VDD VDD pch_hvt l=LB w=WAG m=1
.ENDS

************************************************************************
* Library Name: civic
* Cell Name:    ULDO_BANK
* View Name:    schematic
************************************************************************

.SUBCKT ULDO_BANK CODE<5> CODE<4> CODE<3> CODE<2> CODE<1> CODE<0> EN RO<0> 
+ RO<64> RO<63> RO<62> RO<61> RO<60> RO<59> RO<58> RO<57> RO<56> RO<55> RO<54> 
+ RO<53> RO<52> RO<51> RO<50> RO<49> RO<48> RO<47> RO<46> RO<45> RO<44> RO<43> 
+ RO<42> RO<41> RO<40> RO<39> RO<38> RO<37> RO<36> RO<35> RO<34> RO<33> RO<32> 
+ RO<31> RO<30> RO<29> RO<28> RO<27> RO<26> RO<25> RO<24> RO<23> RO<22> RO<21> 
+ RO<20> RO<19> RO<18> RO<17> RO<16> RO<15> RO<14> RO<13> RO<12> RO<11> RO<10> 
+ RO<9> RO<8> RO<7> RO<6> RO<5> RO<4> RO<3> RO<2> RO<1> RS_RISING VDD VOUT VSS
*.PININFO CODE<5>:I CODE<4>:I CODE<3>:I CODE<2>:I CODE<1>:I CODE<0>:I EN:I 
*.PININFO RO<0>:I RS_RISING:I RO<64>:O RO<63>:O RO<62>:O RO<61>:O RO<60>:O 
*.PININFO RO<59>:O RO<58>:O RO<57>:O RO<56>:O RO<55>:O RO<54>:O RO<53>:O 
*.PININFO RO<52>:O RO<51>:O RO<50>:O RO<49>:O RO<48>:O RO<47>:O RO<46>:O 
*.PININFO RO<45>:O RO<44>:O RO<43>:O RO<42>:O RO<41>:O RO<40>:O RO<39>:O 
*.PININFO RO<38>:O RO<37>:O RO<36>:O RO<35>:O RO<34>:O RO<33>:O RO<32>:O 
*.PININFO RO<31>:O RO<30>:O RO<29>:O RO<28>:O RO<27>:O RO<26>:O RO<25>:O 
*.PININFO RO<24>:O RO<23>:O RO<22>:O RO<21>:O RO<20>:O RO<19>:O RO<18>:O 
*.PININFO RO<17>:O RO<16>:O RO<15>:O RO<14>:O RO<13>:O RO<12>:O RO<11>:O 
*.PININFO RO<10>:O RO<9>:O RO<8>:O RO<7>:O RO<6>:O RO<5>:O RO<4>:O RO<3>:O 
*.PININFO RO<2>:O RO<1>:O VDD:B VOUT:B VSS:B
XPWB14<3> RO<44> CODE<4> EN RS_RISING VDD VOUT VSS RO<45> / ULDO4HVT
XPWB14<2> RO<45> CODE<4> EN RS_RISING VDD VOUT VSS RO<46> / ULDO4HVT
XPWB14<1> RO<46> CODE<3> EN RS_RISING VDD VOUT VSS RO<47> / ULDO4HVT
XPWB14<0> RO<47> CODE<3> EN RS_RISING VDD VOUT VSS RO<48> / ULDO4HVT
XPWB7<3> RO<28> CODE<4> EN RS_RISING VDD VOUT VSS RO<29> / ULDO4HVT
XPWB7<2> RO<29> CODE<4> EN RS_RISING VDD VOUT VSS RO<30> / ULDO4HVT
XPWB7<1> RO<30> CODE<2> EN RS_RISING VDD VOUT VSS RO<31> / ULDO4HVT
XPWB7<0> RO<31> CODE<2> EN RS_RISING VDD VOUT VSS RO<32> / ULDO4HVT
XPWB6<3> RO<12> CODE<5> EN RS_RISING VDD VOUT VSS RO<13> / ULDO4HVT
XPWB6<2> RO<13> CODE<5> EN RS_RISING VDD VOUT VSS RO<14> / ULDO4HVT
XPWB6<1> RO<14> CODE<5> EN RS_RISING VDD VOUT VSS RO<15> / ULDO4HVT
XPWB6<0> RO<15> CODE<5> EN RS_RISING VDD VOUT VSS RO<16> / ULDO4HVT
XPWB15<3> RO<60> CODE<4> EN RS_RISING VDD VOUT VSS RO<61> / ULDO4HVT
XPWB15<2> RO<61> CODE<4> EN RS_RISING VDD VOUT VSS RO<62> / ULDO4HVT
XPWB15<1> RO<62> CODE<3> EN RS_RISING VDD VOUT VSS RO<63> / ULDO4HVT
XPWB15<0> RO<63> CODE<3> EN RS_RISING VDD VOUT VSS RO<64> / ULDO4HVT
XPWB13<3> RO<56> CODE<4> EN RS_RISING VDD VOUT VSS RO<57> / ULDO4HVT
XPWB13<2> RO<57> CODE<4> EN RS_RISING VDD VOUT VSS RO<58> / ULDO4HVT
XPWB13<1> RO<58> CODE<3> EN RS_RISING VDD VOUT VSS RO<59> / ULDO4HVT
XPWB13<0> RO<59> CODE<3> EN RS_RISING VDD VOUT VSS RO<60> / ULDO4HVT
XPWB12<3> RO<40> CODE<5> EN RS_RISING VDD VOUT VSS RO<41> / ULDO4HVT
XPWB12<2> RO<41> CODE<5> EN RS_RISING VDD VOUT VSS RO<42> / ULDO4HVT
XPWB12<1> RO<42> CODE<5> EN RS_RISING VDD VOUT VSS RO<43> / ULDO4HVT
XPWB12<0> RO<43> CODE<1> EN RS_RISING VDD VOUT VSS RO<44> / ULDO4HVT
XPWB5<3> RO<24> CODE<5> EN RS_RISING VDD VOUT VSS RO<25> / ULDO4HVT
XPWB5<2> RO<25> CODE<5> EN RS_RISING VDD VOUT VSS RO<26> / ULDO4HVT
XPWB5<1> RO<26> CODE<5> EN RS_RISING VDD VOUT VSS RO<27> / ULDO4HVT
XPWB5<0> RO<27> CODE<0> EN RS_RISING VDD VOUT VSS RO<28> / ULDO4HVT
XPWB4<3> RO<8> CODE<5> EN RS_RISING VDD VOUT VSS RO<9> / ULDO4HVT
XPWB4<2> RO<9> CODE<5> EN RS_RISING VDD VOUT VSS RO<10> / ULDO4HVT
XPWB4<1> RO<10> CODE<5> EN RS_RISING VDD VOUT VSS RO<11> / ULDO4HVT
XPWB4<0> RO<11> CODE<5> EN RS_RISING VDD VOUT VSS RO<12> / ULDO4HVT
XPWB11<3> RO<52> CODE<5> EN RS_RISING VDD VOUT VSS RO<53> / ULDO4HVT
XPWB11<2> RO<53> CODE<5> EN RS_RISING VDD VOUT VSS RO<54> / ULDO4HVT
XPWB11<1> RO<54> CODE<3> EN RS_RISING VDD VOUT VSS RO<55> / ULDO4HVT
XPWB11<0> RO<55> CODE<3> EN RS_RISING VDD VOUT VSS RO<56> / ULDO4HVT
XPWB10<3> RO<36> CODE<5> EN RS_RISING VDD VOUT VSS RO<37> / ULDO4HVT
XPWB10<2> RO<37> CODE<5> EN RS_RISING VDD VOUT VSS RO<38> / ULDO4HVT
XPWB10<1> RO<38> CODE<5> EN RS_RISING VDD VOUT VSS RO<39> / ULDO4HVT
XPWB10<0> RO<39> CODE<1> EN RS_RISING VDD VOUT VSS RO<40> / ULDO4HVT
XPWB3<3> RO<20> CODE<5> EN RS_RISING VDD VOUT VSS RO<21> / ULDO4HVT
XPWB3<2> RO<21> CODE<5> EN RS_RISING VDD VOUT VSS RO<22> / ULDO4HVT
XPWB3<1> RO<22> CODE<2> EN RS_RISING VDD VOUT VSS RO<23> / ULDO4HVT
XPWB3<0> RO<23> CODE<2> EN RS_RISING VDD VOUT VSS RO<24> / ULDO4HVT
XPWB2<3> RO<4> CODE<5> EN RS_RISING VDD VOUT VSS RO<5> / ULDO4HVT
XPWB2<2> RO<5> CODE<5> EN RS_RISING VDD VOUT VSS RO<6> / ULDO4HVT
XPWB2<1> RO<6> CODE<5> EN RS_RISING VDD VOUT VSS RO<7> / ULDO4HVT
XPWB2<0> RO<7> CODE<5> EN RS_RISING VDD VOUT VSS RO<8> / ULDO4HVT
XPWB9<3> RO<48> CODE<4> EN RS_RISING VDD VOUT VSS RO<49> / ULDO4HVT
XPWB9<2> RO<49> CODE<4> EN RS_RISING VDD VOUT VSS RO<50> / ULDO4HVT
XPWB9<1> RO<50> CODE<4> EN RS_RISING VDD VOUT VSS RO<51> / ULDO4HVT
XPWB9<0> RO<51> CODE<4> EN RS_RISING VDD VOUT VSS RO<52> / ULDO4HVT
XPBW8<3> RO<32> CODE<5> EN RS_RISING VDD VOUT VSS RO<33> / ULDO4HVT
XPBW8<2> RO<33> CODE<5> EN RS_RISING VDD VOUT VSS RO<34> / ULDO4HVT
XPBW8<1> RO<34> CODE<5> EN RS_RISING VDD VOUT VSS RO<35> / ULDO4HVT
XPBW8<0> RO<35> CODE<5> EN RS_RISING VDD VOUT VSS RO<36> / ULDO4HVT
XPWB1<3> RO<16> CODE<4> EN RS_RISING VDD VOUT VSS RO<17> / ULDO4HVT
XPWB1<2> RO<17> CODE<4> EN RS_RISING VDD VOUT VSS RO<18> / ULDO4HVT
XPWB1<1> RO<18> CODE<4> EN RS_RISING VDD VOUT VSS RO<19> / ULDO4HVT
XPWB1<0> RO<19> CODE<4> EN RS_RISING VDD VOUT VSS RO<20> / ULDO4HVT
XPWB0<3> RO<0> CODE<5> EN RS_RISING VDD VOUT VSS RO<1> / ULDO4HVT
XPWB0<2> RO<1> CODE<5> EN RS_RISING VDD VOUT VSS RO<2> / ULDO4HVT
XPWB0<1> RO<2> CODE<5> EN RS_RISING VDD VOUT VSS RO<3> / ULDO4HVT
XPWB0<0> RO<3> EN EN RS_RISING VDD VOUT VSS RO<4> / ULDO4HVT
XDDCP<47> VDD VSS / DCAP16HVT
XDDCP<46> VDD VSS / DCAP16HVT
XDDCP<45> VDD VSS / DCAP16HVT
XDDCP<44> VDD VSS / DCAP16HVT
XDDCP<43> VDD VSS / DCAP16HVT
XDDCP<42> VDD VSS / DCAP16HVT
XDDCP<41> VDD VSS / DCAP16HVT
XDDCP<40> VDD VSS / DCAP16HVT
XDDCP<39> VDD VSS / DCAP16HVT
XDDCP<38> VDD VSS / DCAP16HVT
XDDCP<37> VDD VSS / DCAP16HVT
XDDCP<36> VDD VSS / DCAP16HVT
XDDCP<35> VDD VSS / DCAP16HVT
XDDCP<34> VDD VSS / DCAP16HVT
XDDCP<33> VDD VSS / DCAP16HVT
XDDCP<32> VDD VSS / DCAP16HVT
XDDCP<31> VDD VSS / DCAP16HVT
XDDCP<30> VDD VSS / DCAP16HVT
XDDCP<29> VDD VSS / DCAP16HVT
XDDCP<28> VDD VSS / DCAP16HVT
XDDCP<27> VDD VSS / DCAP16HVT
XDDCP<26> VDD VSS / DCAP16HVT
XDDCP<25> VDD VSS / DCAP16HVT
XDDCP<24> VDD VSS / DCAP16HVT
XDDCP<23> VDD VSS / DCAP16HVT
XDDCP<22> VDD VSS / DCAP16HVT
XDDCP<21> VDD VSS / DCAP16HVT
XDDCP<20> VDD VSS / DCAP16HVT
XDDCP<19> VDD VSS / DCAP16HVT
XDDCP<18> VDD VSS / DCAP16HVT
XDDCP<17> VDD VSS / DCAP16HVT
XDDCP<16> VDD VSS / DCAP16HVT
XDDCP<15> VDD VSS / DCAP16HVT
XDDCP<14> VDD VSS / DCAP16HVT
XDDCP<13> VDD VSS / DCAP16HVT
XDDCP<12> VDD VSS / DCAP16HVT
XDDCP<11> VDD VSS / DCAP16HVT
XDDCP<10> VDD VSS / DCAP16HVT
XDDCP<9> VDD VSS / DCAP16HVT
XDDCP<8> VDD VSS / DCAP16HVT
XDDCP<7> VDD VSS / DCAP16HVT
XDDCP<6> VDD VSS / DCAP16HVT
XDDCP<5> VDD VSS / DCAP16HVT
XDDCP<4> VDD VSS / DCAP16HVT
XDDCP<3> VDD VSS / DCAP16HVT
XDDCP<2> VDD VSS / DCAP16HVT
XDDCP<1> VDD VSS / DCAP16HVT
XDDCP<0> VDD VSS / DCAP16HVT
.ENDS

************************************************************************
* Library Name: tcbn65lphvt
* Cell Name:    INVD0HVT
* View Name:    schematic
************************************************************************

.SUBCKT INVD0HVT I VDD VSS ZN
*.PININFO I:I ZN:O VDD:B VSS:B
MMU1-M_u2 ZN I VSS VSS nch_hvt l=LA w=WE m=1
MMU1-M_u3 ZN I VDD VDD pch_hvt l=LA w=WL m=1
.ENDS

************************************************************************
* Library Name: tcbn65lphvt
* Cell Name:    ND2D0HVT
* View Name:    schematic
************************************************************************

.SUBCKT ND2D0HVT A1 A2 VDD VSS ZN
*.PININFO A1:I A2:I ZN:O VDD:B VSS:B
MMI0-M_u3 ZN A1 net1 VSS nch_hvt l=LA w=WE m=1
MMI0-M_u4 net1 A2 VSS VSS nch_hvt l=LA w=WE m=1
MMI0-M_u1 ZN A1 VDD VDD pch_hvt l=LA w=WL m=1
MMI0-M_u2 ZN A2 VDD VDD pch_hvt l=LA w=WL m=1
.ENDS

************************************************************************
* Library Name: civic
* Cell Name:    Dlvlxft_16B
* View Name:    schematic
************************************************************************

.SUBCKT Dlvlxft_16B BUS_IN<15> BUS_IN<14> BUS_IN<13> BUS_IN<12> BUS_IN<11> 
+ BUS_IN<10> BUS_IN<9> BUS_IN<8> BUS_IN<7> BUS_IN<6> BUS_IN<5> BUS_IN<4> 
+ BUS_IN<3> BUS_IN<2> BUS_IN<1> BUS_IN<0> BUS_OUT<15> BUS_OUT<14> BUS_OUT<13> 
+ BUS_OUT<12> BUS_OUT<11> BUS_OUT<10> BUS_OUT<9> BUS_OUT<8> BUS_OUT<7> 
+ BUS_OUT<6> BUS_OUT<5> BUS_OUT<4> BUS_OUT<3> BUS_OUT<2> BUS_OUT<1> BUS_OUT<0> 
+ BUS_OUTN<15> BUS_OUTN<14> BUS_OUTN<13> BUS_OUTN<12> BUS_OUTN<11> 
+ BUS_OUTN<10> BUS_OUTN<9> BUS_OUTN<8> BUS_OUTN<7> BUS_OUTN<6> BUS_OUTN<5> 
+ BUS_OUTN<4> BUS_OUTN<3> BUS_OUTN<2> BUS_OUTN<1> BUS_OUTN<0> VDD VSS
*.PININFO BUS_IN<15>:I BUS_IN<14>:I BUS_IN<13>:I BUS_IN<12>:I BUS_IN<11>:I 
*.PININFO BUS_IN<10>:I BUS_IN<9>:I BUS_IN<8>:I BUS_IN<7>:I BUS_IN<6>:I 
*.PININFO BUS_IN<5>:I BUS_IN<4>:I BUS_IN<3>:I BUS_IN<2>:I BUS_IN<1>:I 
*.PININFO BUS_IN<0>:I BUS_OUT<15>:O BUS_OUT<14>:O BUS_OUT<13>:O BUS_OUT<12>:O 
*.PININFO BUS_OUT<11>:O BUS_OUT<10>:O BUS_OUT<9>:O BUS_OUT<8>:O BUS_OUT<7>:O 
*.PININFO BUS_OUT<6>:O BUS_OUT<5>:O BUS_OUT<4>:O BUS_OUT<3>:O BUS_OUT<2>:O 
*.PININFO BUS_OUT<1>:O BUS_OUT<0>:O BUS_OUTN<15>:O BUS_OUTN<14>:O 
*.PININFO BUS_OUTN<13>:O BUS_OUTN<12>:O BUS_OUTN<11>:O BUS_OUTN<10>:O 
*.PININFO BUS_OUTN<9>:O BUS_OUTN<8>:O BUS_OUTN<7>:O BUS_OUTN<6>:O 
*.PININFO BUS_OUTN<5>:O BUS_OUTN<4>:O BUS_OUTN<3>:O BUS_OUTN<2>:O 
*.PININFO BUS_OUTN<1>:O BUS_OUTN<0>:O VDD:B VSS:B
XI2<15> BUS_IN<15> VDD VSS N<15> / INVD0HVT
XI2<14> BUS_IN<14> VDD VSS N<14> / INVD0HVT
XI2<13> BUS_IN<13> VDD VSS N<13> / INVD0HVT
XI2<12> BUS_IN<12> VDD VSS N<12> / INVD0HVT
XI2<11> BUS_IN<11> VDD VSS N<11> / INVD0HVT
XI2<10> BUS_IN<10> VDD VSS N<10> / INVD0HVT
XI2<9> BUS_IN<9> VDD VSS N<9> / INVD0HVT
XI2<8> BUS_IN<8> VDD VSS N<8> / INVD0HVT
XI2<7> BUS_IN<7> VDD VSS N<7> / INVD0HVT
XI2<6> BUS_IN<6> VDD VSS N<6> / INVD0HVT
XI2<5> BUS_IN<5> VDD VSS N<5> / INVD0HVT
XI2<4> BUS_IN<4> VDD VSS N<4> / INVD0HVT
XI2<3> BUS_IN<3> VDD VSS N<3> / INVD0HVT
XI2<2> BUS_IN<2> VDD VSS N<2> / INVD0HVT
XI2<1> BUS_IN<1> VDD VSS N<1> / INVD0HVT
XI2<0> BUS_IN<0> VDD VSS N<0> / INVD0HVT
XI1<15> N<15> BUS_OUTN<15> VDD VSS BUS_OUT<15> / ND2D0HVT
XI1<14> N<14> BUS_OUTN<14> VDD VSS BUS_OUT<14> / ND2D0HVT
XI1<13> N<13> BUS_OUTN<13> VDD VSS BUS_OUT<13> / ND2D0HVT
XI1<12> N<12> BUS_OUTN<12> VDD VSS BUS_OUT<12> / ND2D0HVT
XI1<11> N<11> BUS_OUTN<11> VDD VSS BUS_OUT<11> / ND2D0HVT
XI1<10> N<10> BUS_OUTN<10> VDD VSS BUS_OUT<10> / ND2D0HVT
XI1<9> N<9> BUS_OUTN<9> VDD VSS BUS_OUT<9> / ND2D0HVT
XI1<8> N<8> BUS_OUTN<8> VDD VSS BUS_OUT<8> / ND2D0HVT
XI1<7> N<7> BUS_OUTN<7> VDD VSS BUS_OUT<7> / ND2D0HVT
XI1<6> N<6> BUS_OUTN<6> VDD VSS BUS_OUT<6> / ND2D0HVT
XI1<5> N<5> BUS_OUTN<5> VDD VSS BUS_OUT<5> / ND2D0HVT
XI1<4> N<4> BUS_OUTN<4> VDD VSS BUS_OUT<4> / ND2D0HVT
XI1<3> N<3> BUS_OUTN<3> VDD VSS BUS_OUT<3> / ND2D0HVT
XI1<2> N<2> BUS_OUTN<2> VDD VSS BUS_OUT<2> / ND2D0HVT
XI1<1> N<1> BUS_OUTN<1> VDD VSS BUS_OUT<1> / ND2D0HVT
XI1<0> N<0> BUS_OUTN<0> VDD VSS BUS_OUT<0> / ND2D0HVT
XI3<15> BUS_IN<15> BUS_OUT<15> VDD VSS BUS_OUTN<15> / ND2D0HVT
XI3<14> BUS_IN<14> BUS_OUT<14> VDD VSS BUS_OUTN<14> / ND2D0HVT
XI3<13> BUS_IN<13> BUS_OUT<13> VDD VSS BUS_OUTN<13> / ND2D0HVT
XI3<12> BUS_IN<12> BUS_OUT<12> VDD VSS BUS_OUTN<12> / ND2D0HVT
XI3<11> BUS_IN<11> BUS_OUT<11> VDD VSS BUS_OUTN<11> / ND2D0HVT
XI3<10> BUS_IN<10> BUS_OUT<10> VDD VSS BUS_OUTN<10> / ND2D0HVT
XI3<9> BUS_IN<9> BUS_OUT<9> VDD VSS BUS_OUTN<9> / ND2D0HVT
XI3<8> BUS_IN<8> BUS_OUT<8> VDD VSS BUS_OUTN<8> / ND2D0HVT
XI3<7> BUS_IN<7> BUS_OUT<7> VDD VSS BUS_OUTN<7> / ND2D0HVT
XI3<6> BUS_IN<6> BUS_OUT<6> VDD VSS BUS_OUTN<6> / ND2D0HVT
XI3<5> BUS_IN<5> BUS_OUT<5> VDD VSS BUS_OUTN<5> / ND2D0HVT
XI3<4> BUS_IN<4> BUS_OUT<4> VDD VSS BUS_OUTN<4> / ND2D0HVT
XI3<3> BUS_IN<3> BUS_OUT<3> VDD VSS BUS_OUTN<3> / ND2D0HVT
XI3<2> BUS_IN<2> BUS_OUT<2> VDD VSS BUS_OUTN<2> / ND2D0HVT
XI3<1> BUS_IN<1> BUS_OUT<1> VDD VSS BUS_OUTN<1> / ND2D0HVT
XI3<0> BUS_IN<0> BUS_OUT<0> VDD VSS BUS_OUTN<0> / ND2D0HVT
.ENDS

************************************************************************
* Library Name: tcbn65lphvt
* Cell Name:    CKND1HVT
* View Name:    schematic
************************************************************************

.SUBCKT CKND1HVT I VDD VSS ZN
*.PININFO I:I ZN:O VDD:B VSS:B
MM_u2 ZN I VSS VSS nch_hvt l=LA w=WW m=1
MM_u1 ZN I VDD VDD pch_hvt l=LA w=WAM m=1
.ENDS

************************************************************************
* Library Name: tcbn65lphvt
* Cell Name:    MUX3D1HVT
* View Name:    schematic
************************************************************************

.SUBCKT MUX3D1HVT I0 I1 I2 S0 S1 VDD VSS Z
*.PININFO I0:I I1:I I2:I S0:I S1:I Z:O VDD:B VSS:B
MMI22-M_u3 net37 net13 net25 VSS nch_hvt l=LA w=WH m=1
MMI4-M_u3 net33 S0 net25 VSS nch_hvt l=LA w=WI m=1
MMI12-M_u2 net37 I0 VSS VSS nch_hvt l=LA w=WH m=1
MMI5-M_u3 net25 net9 net79 VSS nch_hvt l=LA w=WF m=1
MMU95-M_u2 net5 I2 VSS VSS nch_hvt l=LA w=WAC m=1
MMI14-M_u2 net33 I1 VSS VSS nch_hvt l=LA w=WAC m=1
MMI3-M_u2 net13 S0 VSS VSS nch_hvt l=LA w=WE m=1
MMU19-M_u2 net9 S1 VSS VSS nch_hvt l=LA w=WE m=1
MMI6-M_u3 net5 S1 net79 VSS nch_hvt l=LA w=WX m=1
MMU18-M_u2 Z net79 VSS VSS nch_hvt l=LA w=WAC m=1
MMU18-M_u3 Z net79 VDD VDD pch_hvt l=LA w=WAM m=1
MMI5-M_u2 net25 S1 net79 VDD pch_hvt l=LA w=WL m=1
MMI14-M_u3 net33 I1 VDD VDD pch_hvt l=LA w=WAM m=1
MMU19-M_u3 net9 S1 VDD VDD pch_hvt l=LA w=WL m=1
MMU95-M_u3 net5 I2 VDD VDD pch_hvt l=LA w=WAM m=1
MMI4-M_u2 net33 net13 net25 VDD pch_hvt l=LA w=WZ m=1
MMI3-M_u3 net13 S0 VDD VDD pch_hvt l=LA w=WL m=1
MMI6-M_u2 net5 net9 net79 VDD pch_hvt l=LA w=WAH m=1
MMI12-M_u3 net37 I0 VDD VDD pch_hvt l=LA w=WY m=1
MMI22-M_u2 net37 S0 net25 VDD pch_hvt l=LA w=WAF m=1
.ENDS

************************************************************************
* Library Name: civic
* Cell Name:    PWR_BANK
* View Name:    schematic
************************************************************************

.SUBCKT PWR_BANK CODE<5> CODE<4> CODE<3> CODE<2> CODE<1> CODE<0> DOUT<0> 
+ DOUT<1> DOUT<2> DOUT<3> DOUT<4> DOUT<5> DOUT<6> DOUT<7> DOUT<8> DOUT<9> 
+ DOUT<10> DOUT<11> DOUT<12> DOUT<13> DOUT<14> DOUT<15> EN MCLK RS_RISING 
+ SEL<1> SEL<0> SYSCLK VDD VOUT VSS
*.PININFO CODE<5>:I CODE<4>:I CODE<3>:I CODE<2>:I CODE<1>:I CODE<0>:I EN:I 
*.PININFO RS_RISING:I SEL<1>:I SEL<0>:I SYSCLK:I DOUT<0>:O DOUT<1>:O DOUT<2>:O 
*.PININFO DOUT<3>:O DOUT<4>:O DOUT<5>:O DOUT<6>:O DOUT<7>:O DOUT<8>:O 
*.PININFO DOUT<9>:O DOUT<10>:O DOUT<11>:O DOUT<12>:O DOUT<13>:O DOUT<14>:O 
*.PININFO DOUT<15>:O MCLK:O VDD:B VOUT:B VSS:B
XI30 CODE<5> CODE<4> CODE<3> CODE<2> CODE<1> CODE<0> EN RO<0> RO<64> RO<63> 
+ RO<62> RO<61> RO<60> RO<59> RO<58> RO<57> RO<56> RO<55> RO<54> RO<53> RO<52> 
+ RO<51> RO<50> RO<49> RO<48> RO<47> RO<46> RO<45> RO<44> RO<43> RO<42> RO<41> 
+ RO<40> RO<39> RO<38> RO<37> RO<36> RO<35> RO<34> RO<33> RO<32> RO<31> RO<30> 
+ RO<29> RO<28> RO<27> RO<26> RO<25> RO<24> RO<23> RO<22> RO<21> RO<20> RO<19> 
+ RO<18> RO<17> RO<16> RO<15> RO<14> RO<13> RO<12> RO<11> RO<10> RO<9> RO<8> 
+ RO<7> RO<6> RO<5> RO<4> RO<3> RO<2> RO<1> RS_RISING VDD VOUT VSS / ULDO_BANK
XI16 RO<4> RO<8> RO<12> RO<16> RO<20> RO<24> RO<28> RO<32> RO<36> RO<40> 
+ RO<44> RO<48> RO<52> RO<56> RO<60> RO<64> DOUT<0> DOUT<1> DOUT<2> DOUT<3> 
+ DOUT<4> DOUT<5> DOUT<6> DOUT<7> DOUT<8> DOUT<9> DOUT<10> DOUT<11> DOUT<12> 
+ DOUT<13> DOUT<14> DOUT<15> DOUTN<0> DOUTN<1> DOUTN<2> DOUTN<3> DOUTN<4> 
+ DOUTN<5> DOUTN<6> DOUTN<7> DOUTN<8> DOUTN<9> DOUTN<10> DOUTN<11> DOUTN<12> 
+ DOUTN<13> DOUTN<14> DOUTN<15> VDD VSS / Dlvlxft_16B
XI28 DOUT<0> VDD VSS MCLK / CKND1HVT
XI27 SYSCLK DOUTN<7> DOUTN<15> SEL<0> SEL<1> VDD VSS RO<0> / MUX3D1HVT
.ENDS

************************************************************************
* Library Name: tcbn65lphvt
* Cell Name:    DCAP8HVT
* View Name:    schematic
************************************************************************

.SUBCKT DCAP8HVT VDD VSS
*.PININFO VDD:B VSS:B
MMI4 VSS net9 VSS VSS nch_hvt l=LC w=WV m=1
MM_u2 net11 net9 VSS VSS nch_hvt l=LA w=WV m=1
MMI3 VDD net11 VDD VDD pch_hvt l=LC w=WAG m=1
MM_u1 net9 net11 VDD VDD pch_hvt l=LA w=WAC m=1
.ENDS

************************************************************************
* Library Name: tcbn65lphvt
* Cell Name:    INVD1HVT
* View Name:    schematic
************************************************************************

.SUBCKT INVD1HVT I VDD VSS ZN
*.PININFO I:I ZN:O VDD:B VSS:B
MMU1-M_u2 ZN I VSS VSS nch_hvt l=LA w=WAC m=1
MMU1-M_u3 ZN I VDD VDD pch_hvt l=LA w=WAM m=1
.ENDS

************************************************************************
* Library Name: tcbn65lphvt
* Cell Name:    AN2D4HVT
* View Name:    schematic
************************************************************************

.SUBCKT AN2D4HVT A1 A2 VDD VSS Z
*.PININFO A1:I A2:I Z:O VDD:B VSS:B
MM_u3_2-M_u3 Z net5 VDD VDD pch_hvt l=LA w=WAM m=1
MM_u3_1-M_u3 Z net5 VDD VDD pch_hvt l=LA w=WAM m=1
MM_u3_0-M_u3 Z net5 VDD VDD pch_hvt l=LA w=WAM m=1
MM_u3_3-M_u3 Z net5 VDD VDD pch_hvt l=LA w=WAM m=1
MM_u2_0-M_u1 net5 A1 VDD VDD pch_hvt l=LA w=WAM m=1
MM_u2_1-M_u1 net5 A1 VDD VDD pch_hvt l=LA w=WAM m=1
MM_u2_0-M_u2 net5 A2 VDD VDD pch_hvt l=LA w=WAM m=1
MM_u2_1-M_u2 net5 A2 VDD VDD pch_hvt l=LA w=WAM m=1
MM_u3_1-M_u2 Z net5 VSS VSS nch_hvt l=LA w=WAC m=1
MM_u2_0-M_u4 net57 A2 VSS VSS nch_hvt l=LA w=WAC m=1
MM_u3_2-M_u2 Z net5 VSS VSS nch_hvt l=LA w=WAC m=1
MM_u2_1-M_u4 net44 A2 VSS VSS nch_hvt l=LA w=WAC m=1
MM_u3_3-M_u2 Z net5 VSS VSS nch_hvt l=LA w=WAC m=1
MM_u2_1-M_u3 net5 A1 net44 VSS nch_hvt l=LA w=WAC m=1
MM_u2_0-M_u3 net5 A1 net57 VSS nch_hvt l=LA w=WAC m=1
MM_u3_0-M_u2 Z net5 VSS VSS nch_hvt l=LA w=WAC m=1
.ENDS

************************************************************************
* Library Name: tcbn65lphvt
* Cell Name:    INVD16HVT
* View Name:    schematic
************************************************************************

.SUBCKT INVD16HVT I VDD VSS ZN
*.PININFO I:I ZN:O VDD:B VSS:B
MMI2_9-M_u3 ZN I VDD VDD pch_hvt l=LA w=WAM m=1
MMI2_6-M_u3 ZN I VDD VDD pch_hvt l=LA w=WAM m=1
MMI2_1-M_u3 ZN I VDD VDD pch_hvt l=LA w=WAM m=1
MMI2_4-M_u3 ZN I VDD VDD pch_hvt l=LA w=WAM m=1
MMI2_12-M_u3 ZN I VDD VDD pch_hvt l=LA w=WAM m=1
MMI2_13-M_u3 ZN I VDD VDD pch_hvt l=LA w=WAM m=1
MMI2_3-M_u3 ZN I VDD VDD pch_hvt l=LA w=WAM m=1
MMI2_10-M_u3 ZN I VDD VDD pch_hvt l=LA w=WAM m=1
MMI2_0-M_u3 ZN I VDD VDD pch_hvt l=LA w=WAM m=1
MMI2_11-M_u3 ZN I VDD VDD pch_hvt l=LA w=WAM m=1
MMI2_7-M_u3 ZN I VDD VDD pch_hvt l=LA w=WAM m=1
MMI2_5-M_u3 ZN I VDD VDD pch_hvt l=LA w=WAM m=1
MMI2_2-M_u3 ZN I VDD VDD pch_hvt l=LA w=WAM m=1
MMI2_8-M_u3 ZN I VDD VDD pch_hvt l=LA w=WAM m=1
MMI2_15-M_u3 ZN I VDD VDD pch_hvt l=LA w=WAM m=1
MMI2_14-M_u3 ZN I VDD VDD pch_hvt l=LA w=WAM m=1
MMI2_12-M_u2 ZN I VSS VSS nch_hvt l=LA w=WAC m=1
MMI2_15-M_u2 ZN I VSS VSS nch_hvt l=LA w=WAC m=1
MMI2_3-M_u2 ZN I VSS VSS nch_hvt l=LA w=WAC m=1
MMI2_14-M_u2 ZN I VSS VSS nch_hvt l=LA w=WAC m=1
MMI2_4-M_u2 ZN I VSS VSS nch_hvt l=LA w=WAC m=1
MMI2_1-M_u2 ZN I VSS VSS nch_hvt l=LA w=WAC m=1
MMI2_0-M_u2 ZN I VSS VSS nch_hvt l=LA w=WAC m=1
MMI2_13-M_u2 ZN I VSS VSS nch_hvt l=LA w=WAC m=1
MMI2_8-M_u2 ZN I VSS VSS nch_hvt l=LA w=WAC m=1
MMI2_5-M_u2 ZN I VSS VSS nch_hvt l=LA w=WAC m=1
MMI2_7-M_u2 ZN I VSS VSS nch_hvt l=LA w=WAC m=1
MMI2_6-M_u2 ZN I VSS VSS nch_hvt l=LA w=WAC m=1
MMI2_9-M_u2 ZN I VSS VSS nch_hvt l=LA w=WAC m=1
MMI2_2-M_u2 ZN I VSS VSS nch_hvt l=LA w=WAC m=1
MMI2_11-M_u2 ZN I VSS VSS nch_hvt l=LA w=WAC m=1
MMI2_10-M_u2 ZN I VSS VSS nch_hvt l=LA w=WAC m=1
.ENDS

************************************************************************
* Library Name: tcbn65lphvt
* Cell Name:    DEL015HVT
* View Name:    schematic
************************************************************************

.SUBCKT DEL015HVT I VDD VSS Z
*.PININFO I:I Z:O VDD:B VSS:B
MMI2-M_u2 Z net13 VSS VSS nch_hvt l=LA w=WAC m=1
MMI29 net25 net9 net28 VSS nch_hvt l=LA w=WAC m=1
MMI30 net28 net9 VSS VSS nch_hvt l=LA w=WAC m=1
MMI37 net17 net5 VSS VSS nch_hvt l=LA w=WAC m=1
MMI28 net13 net9 net25 VSS nch_hvt l=LA w=WAC m=1
MMI35 net9 net5 net44 VSS nch_hvt l=LA w=WAC m=1
MMI1-M_u2 net5 I VSS VSS nch_hvt l=LA w=WAC m=1
MMI36 net44 net5 net17 VSS nch_hvt l=LA w=WAC m=1
MMI2-M_u3 Z net13 VDD VDD pch_hvt l=LA w=WAM m=1
MMI20 net57 net9 VDD VDD pch_hvt l=LA w=WAM m=1
MMI23 net13 net9 net25 VDD pch_hvt l=LA w=WAM m=1
MMI1-M_u3 net5 I VDD VDD pch_hvt l=LA w=WAM m=1
MMI21 net25 net9 net57 VDD pch_hvt l=LA w=WAM m=1
MMI32 net9 net5 net44 VDD pch_hvt l=LA w=WAM m=1
MMI31 net44 net5 net33 VDD pch_hvt l=LA w=WAM m=1
MMI7 net33 net5 VDD VDD pch_hvt l=LA w=WAM m=1
.ENDS

************************************************************************
* Library Name: civic
* Cell Name:    LDO_CK_GEN
* View Name:    schematic
************************************************************************

.SUBCKT LDO_CK_GEN SEL_RST SYSCLK VDD VSS
*.PININFO SYSCLK:I SEL_RST:O VDD:B VSS:B
XI19 net26 VDD VSS net24 / INVD1HVT
XI0 SYSCLK net24 VDD VSS net25 / AN2D4HVT
XI44 net25 VDD VSS SEL_RST / INVD16HVT
XI4 SYSCLK VDD VSS net26 / DEL015HVT
.ENDS

************************************************************************
* Library Name: tcbn65lphvt
* Cell Name:    CKND0HVT
* View Name:    schematic
************************************************************************

.SUBCKT CKND0HVT I VDD VSS ZN
*.PININFO I:I ZN:O VDD:B VSS:B
MM_u2 ZN I VSS VSS nch_hvt l=LA w=WA m=1
MM_u1 ZN I VDD VDD pch_hvt l=LA w=WL m=1
.ENDS

************************************************************************
* Library Name: tcbn65lphvt
* Cell Name:    ND3D1HVT
* View Name:    schematic
************************************************************************

.SUBCKT ND3D1HVT A1 A2 A3 VDD VSS ZN
*.PININFO A1:I A2:I A3:I ZN:O VDD:B VSS:B
MMI1-M_u5 net9 A2 net1 VSS nch_hvt l=LA w=WAC m=1
MMI1-M_u4 ZN A1 net9 VSS nch_hvt l=LA w=WAC m=1
MMI1-M_u6 net1 A3 VSS VSS nch_hvt l=LA w=WAC m=1
MMI1-M_u1 ZN A1 VDD VDD pch_hvt l=LA w=WAM m=1
MMI1-M_u3 ZN A3 VDD VDD pch_hvt l=LA w=WAM m=1
MMI1-M_u2 ZN A2 VDD VDD pch_hvt l=LA w=WAM m=1
.ENDS

************************************************************************
* Library Name: tcbn65lphvt
* Cell Name:    OAI21D1HVT
* View Name:    schematic
************************************************************************

.SUBCKT OAI21D1HVT A1 A2 B VDD VSS ZN
*.PININFO A1:I A2:I B:I ZN:O VDD:B VSS:B
MMI16-MI13 net9 A2 VDD VDD pch_hvt l=LA w=WAM m=1
MM_u9 ZN B VDD VDD pch_hvt l=LA w=WAM m=1
MMI16-MI12 ZN A1 net9 VDD pch_hvt l=LA w=WAM m=1
MM_u3 ZN A2 net24 VSS nch_hvt l=LA w=WAC m=1
MM_u4 net24 B VSS VSS nch_hvt l=LA w=WAC m=1
MM_u2 ZN A1 net24 VSS nch_hvt l=LA w=WAC m=1
.ENDS

************************************************************************
* Library Name: tcbn65lphvt
* Cell Name:    ND2D1HVT
* View Name:    schematic
************************************************************************

.SUBCKT ND2D1HVT A1 A2 VDD VSS ZN
*.PININFO A1:I A2:I ZN:O VDD:B VSS:B
MMI1-M_u3 ZN A1 net1 VSS nch_hvt l=LA w=WAC m=1
MMI1-M_u4 net1 A2 VSS VSS nch_hvt l=LA w=WAC m=1
MMI1-M_u1 ZN A1 VDD VDD pch_hvt l=LA w=WAM m=1
MMI1-M_u2 ZN A2 VDD VDD pch_hvt l=LA w=WAM m=1
.ENDS

************************************************************************
* Library Name: tcbn65lphvt
* Cell Name:    CKXOR2D1HVT
* View Name:    schematic
************************************************************************

.SUBCKT CKXOR2D1HVT A1 A2 VDD VSS Z
*.PININFO A1:I A2:I Z:O VDD:B VSS:B
MM_u6-M_u2 net27 A1 net44 VDD pch_hvt l=LA w=WQ m=1
MM_u4-M_u3 Z net44 VDD VDD pch_hvt l=LA w=WAM m=1
MM_u5-M_u3 net5 net27 VDD VDD pch_hvt l=LA w=WQ m=1
MM_u8-M_u3 net9 A1 VDD VDD pch_hvt l=LA w=WL m=1
MMI0-M_u2 net5 net9 net44 VDD pch_hvt l=LA w=WQ m=1
MM_u2-M_u3 net27 A2 VDD VDD pch_hvt l=LA w=WAM m=1
MM_u6-M_u3 net27 net9 net44 VSS nch_hvt l=LA w=WE m=1
MMI0-M_u3 net5 A1 net44 VSS nch_hvt l=LA w=WE m=1
MM_u8-M_u2 net9 A1 VSS VSS nch_hvt l=LA w=WE m=1
MM_u4-M_u2 Z net44 VSS VSS nch_hvt l=LA w=WAC m=1
MM_u2-M_u2 net27 A2 VSS VSS nch_hvt l=LA w=WAC m=1
MM_u5-M_u2 net5 net27 VSS VSS nch_hvt l=LA w=WE m=1
.ENDS

************************************************************************
* Library Name: tcbn65lphvt
* Cell Name:    INVD3HVT
* View Name:    schematic
************************************************************************

.SUBCKT INVD3HVT I VDD VSS ZN
*.PININFO I:I ZN:O VDD:B VSS:B
MMU1_0-M_u2 ZN I VSS VSS nch_hvt l=LA w=WAC m=1
MMU1_1-M_u2 ZN I VSS VSS nch_hvt l=LA w=WAC m=1
MMU1_2-M_u2 ZN I VSS VSS nch_hvt l=LA w=WAC m=1
MMU1_0-M_u3 ZN I VDD VDD pch_hvt l=LA w=WAM m=1
MMU1_1-M_u3 ZN I VDD VDD pch_hvt l=LA w=WAM m=1
MMU1_2-M_u3 ZN I VDD VDD pch_hvt l=LA w=WAM m=1
.ENDS

************************************************************************
* Library Name: tcbn65lphvt
* Cell Name:    CKND6HVT
* View Name:    schematic
************************************************************************

.SUBCKT CKND6HVT I VDD VSS ZN
*.PININFO I:I ZN:O VDD:B VSS:B
MM_u1_0 ZN I VDD VDD pch_hvt l=LA w=WAM m=1
MM_u1_3 ZN I VDD VDD pch_hvt l=LA w=WAM m=1
MM_u1_2 ZN I VDD VDD pch_hvt l=LA w=WAM m=1
MM_u1_4 ZN I VDD VDD pch_hvt l=LA w=WAM m=1
MM_u1_1 ZN I VDD VDD pch_hvt l=LA w=WAM m=1
MM_u1_5 ZN I VDD VDD pch_hvt l=LA w=WAM m=1
DDI3 VSS I ndio_hvt area=6.6e-14 pj=1.18e-06 m=1
MM_u2_1 ZN I VSS VSS nch_hvt l=LA w=WW m=1
MM_u2_3 ZN I VSS VSS nch_hvt l=LA w=WW m=1
MM_u2_4 ZN I VSS VSS nch_hvt l=LA w=WW m=1
MM_u2_0 ZN I VSS VSS nch_hvt l=LA w=WW m=1
MM_u2_2 ZN I VSS VSS nch_hvt l=LA w=WW m=1
MM_u2_5 ZN I VSS VSS nch_hvt l=LA w=WW m=1
.ENDS

************************************************************************
* Library Name: tcbn65lphvt
* Cell Name:    DFCNQD1HVT
* View Name:    schematic
************************************************************************

.SUBCKT DFCNQD1HVT CDN CP D Q VDD VSS
*.PININFO CDN:I CP:I D:I Q:O VDD:B VSS:B
MMI4 net53 net5 VSS VSS nch_hvt l=LA w=WZ m=1
MMI21-M_u3 net81 net51 net9 VSS nch_hvt l=LA w=WAC m=1
MMI13-M_u2 net37 net97 VSS VSS nch_hvt l=LA w=WB m=1
MMI29 net51 net5 net44 VSS nch_hvt l=LA w=WA m=1