.model nmos_rvt nmos l=1 w=1 nfin=1 nf=1
.model pmos_rvt pmos l=1 w=1 nfin=1 nf=1
.model n nmos nfin=1 nf=1 l=1 m=1
.model p pmos nfin=1 nf=1 l=1 m=1
.model nfet nmos nfin=1 nf=1 l=1 m=1
.model pfet pmos nfin=1 nf=1 l=1 m=1
.model resistor res res=1
.model capacitor cap cap=1
.model inductor ind ind=1
.model nmos_vtl nmos l=1 w=1 nfin=1 nf=1
.model pmos_vtl pmos l=1 w=1 nfin=1 nf=1

