************************************************************************
* auCdl Netlist:
*
* Library Name:  AP_SerDes
* Top Cell Name: TX_8l12b
* View Name:     schematic
* Netlisted on:  Apr 12 16:58:00 2019
************************************************************************

*.BIPOLAR
*.RESI = 2000
*.RESVAL
*.CAPVAL
*.DIOPERI
*.DIOAREA
*.EQUATION
*.SCALE METER
*.MEGA
.PARAM



************************************************************************
* Library Name: AP_SerDes
* Cell Name:    Bias_v2
* View Name:    schematic
************************************************************************

.SUBCKT Bias_v2 AVDD AVSS CALIN1_3_ CALIN1_2_ CALIN1_1_ CALIN1_0_ CALIN3_3_
+ CALIN3_2_ CALIN3_1_ CALIN3_0_ CALIN5_3_ CALIN5_2_ CALIN5_1_ CALIN5_0_
+ CALIN7_3_ CALIN7_2_ CALIN7_1_ CALIN7_0_ CALIP1_3_ CALIP1_2_ CALIP1_1_
+ CALIP1_0_ CALIP3_3_ CALIP3_2_ CALIP3_1_ CALIP3_0_ CALIP5_3_ CALIP5_2_
+ CALIP5_1_ CALIP5_0_ CALIP7_3_ CALIP7_2_ CALIP7_1_ CALIP7_0_ Ibg In_1m In_3m
+ In_5m In_7m Ip_1m Ip_3m Ip_5m Ip_7m
*.PININFO CALIN1_3_:I CALIN1_2_:I CALIN1_1_:I CALIN1_0_:I CALIN3_3_:I
*.PININFO CALIN3_2_:I CALIN3_1_:I CALIN3_0_:I CALIN5_3_:I CALIN5_2_:I
*.PININFO CALIN5_1_:I CALIN5_0_:I CALIN7_3_:I CALIN7_2_:I CALIN7_1_:I
*.PININFO CALIN7_0_:I CALIP1_3_:I CALIP1_2_:I CALIP1_1_:I CALIP1_0_:I
*.PININFO CALIP3_3_:I CALIP3_2_:I CALIP3_1_:I CALIP3_0_:I CALIP5_3_:I
*.PININFO CALIP5_2_:I CALIP5_1_:I CALIP5_0_:I CALIP7_3_:I CALIP7_2_:I
*.PININFO CALIP7_1_:I CALIP7_0_:I AVDD:B AVSS:B Ibg:B In_1m:B In_3m:B In_5m:B
*.PININFO In_7m:B Ip_1m:B Ip_3m:B Ip_5m:B Ip_7m:B
MM24<19> In_1m net0159 net0136_0_ AVSS nch l=LA w=w3
MM24<18> In_1m net0159 net0136_1_ AVSS nch l=LA w=w3
MM24<17> In_1m net0159 net0136_2_ AVSS nch l=LA w=w3
MM24<16> In_1m net0159 net0136_3_ AVSS nch l=LA w=w3
MM24<15> In_1m net0159 net0136_4_ AVSS nch l=LA w=w3
MM24<14> In_1m net0159 net0136_5_ AVSS nch l=LA w=w3
MM24<13> In_1m net0159 net0136_6_ AVSS nch l=LA w=w3
MM24<12> In_1m net0159 net0136_7_ AVSS nch l=LA w=w3
MM24<11> In_1m net0159 net0136_8_ AVSS nch l=LA w=w3
MM24<10> In_1m net0159 net0136_9_ AVSS nch l=LA w=w3
MM29<9> net0184_0_ net0159 AVSS AVSS nch l=LA w=w4
MM29<8> net0184_1_ net0159 AVSS AVSS nch l=LA w=w4
MM29<7> net0184_2_ net0159 AVSS AVSS nch l=LA w=w4
MM29<6> net0184_3_ net0159 AVSS AVSS nch l=LA w=w4
MM27<0> net073 net0159 AVSS AVSS nch l=LA w=w4
MM26<5> net0220_0_ net0159 net0165_0_ AVSS nch l=LA w=w3
MM26<4> net0220_1_ net0159 net0165_1_ AVSS nch l=LA w=w3
MM26<3> net0220_2_ net0159 net0165_2_ AVSS nch l=LA w=w3
MM25<9> net0162_0_ net0159 AVSS AVSS nch l=LA w=w4
MM25<8> net0162_1_ net0159 AVSS AVSS nch l=LA w=w4
MM25<7> net0162_2_ net0159 AVSS AVSS nch l=LA w=w4
MM25<6> net0162_3_ net0159 AVSS AVSS nch l=LA w=w4
MM23<0> net081 net0159 AVSS AVSS nch l=LA w=w4
MM29<5> net0187_0_ net0159 AVSS AVSS nch l=LA w=w4
MM29<4> net0187_1_ net0159 AVSS AVSS nch l=LA w=w4
MM29<3> net0187_2_ net0159 AVSS AVSS nch l=LA w=w4
MM28<0> net0228 net0159 net073 AVSS nch l=LA w=w3
MM24<2> net0232_0_ net0159 net0154_0_ AVSS nch l=LA w=w3
MM24<1> net0232_1_ net0159 net0154_1_ AVSS nch l=LA w=w3
MM28<2> net0200_0_ net0159 net0179_0_ AVSS nch l=LA w=w3
MM28<1> net0200_1_ net0159 net0179_1_ AVSS nch l=LA w=w3
MM95<5> In_5m CALIN5_2_ net0196_0_ AVSS nch l=LD w=w1mn
MM95<4> In_5m CALIN5_2_ net0196_1_ AVSS nch l=LD w=w1mn
MM95<3> In_5m CALIN5_2_ net0196_2_ AVSS nch l=LD w=w1mn
MM24<5> net0227_0_ net0159 net0145_0_ AVSS nch l=LA w=w3
MM24<4> net0227_1_ net0159 net0145_1_ AVSS nch l=LA w=w3
MM24<3> net0227_2_ net0159 net0145_2_ AVSS nch l=LA w=w3
MM23<9> net0140_0_ net0159 AVSS AVSS nch l=LA w=w4
MM23<8> net0140_1_ net0159 AVSS AVSS nch l=LA w=w4
MM23<7> net0140_2_ net0159 AVSS AVSS nch l=LA w=w4
MM23<6> net0140_3_ net0159 AVSS AVSS nch l=LA w=w4
MM27<9> net0173_0_ net0159 AVSS AVSS nch l=LA w=w4
MM27<8> net0173_1_ net0159 AVSS AVSS nch l=LA w=w4
MM27<7> net0173_2_ net0159 AVSS AVSS nch l=LA w=w4
MM27<6> net0173_3_ net0159 AVSS AVSS nch l=LA w=w4
MM25<0> net077 net0159 AVSS AVSS nch l=LA w=w4
MM100<5> In_7m CALIN7_2_ net0210_0_ AVSS nch l=LD w=w1mn
MM100<4> In_7m CALIN7_2_ net0210_1_ AVSS nch l=LD w=w1mn
MM100<3> In_7m CALIN7_2_ net0210_2_ AVSS nch l=LD w=w1mn
MM99<2> In_7m CALIN7_1_ net0214_0_ AVSS nch l=LD w=w1mn
MM99<1> In_7m CALIN7_1_ net0214_1_ AVSS nch l=LD w=w1mn
MM98<0> In_7m CALIN7_0_ net062 AVSS nch l=LD w=w1mn
MM97<0> In_5m CALIN5_0_ net0228 AVSS nch l=LD w=w1mn
MM30<0> net062 net0159 net069 AVSS nch l=LA w=w3
MM23<5> net0145_0_ net0159 AVSS AVSS nch l=LA w=w4
MM23<4> net0145_1_ net0159 AVSS AVSS nch l=LA w=w4
MM23<3> net0145_2_ net0159 AVSS AVSS nch l=LA w=w4
MM96<2> In_5m CALIN5_1_ net0200_0_ AVSS nch l=LD w=w1mn
MM96<1> In_5m CALIN5_1_ net0200_1_ AVSS nch l=LD w=w1mn
MM93<9> In_3m CALIN3_3_ net0178_0_ AVSS nch l=LD w=w1mn
MM93<8> In_3m CALIN3_3_ net0178_1_ AVSS nch l=LD w=w1mn
MM93<7> In_3m CALIN3_3_ net0178_2_ AVSS nch l=LD w=w1mn
MM93<6> In_3m CALIN3_3_ net0178_3_ AVSS nch l=LD w=w1mn
MM94<9> In_5m CALIN5_3_ net0192_0_ AVSS nch l=LD w=w1mn
MM94<8> In_5m CALIN5_3_ net0192_1_ AVSS nch l=LD w=w1mn
MM94<7> In_5m CALIN5_3_ net0192_2_ AVSS nch l=LD w=w1mn
MM94<6> In_5m CALIN5_3_ net0192_3_ AVSS nch l=LD w=w1mn
MM25<5> net0165_0_ net0159 AVSS AVSS nch l=LA w=w4
MM25<4> net0165_1_ net0159 AVSS AVSS nch l=LA w=w4
MM25<3> net0165_2_ net0159 AVSS AVSS nch l=LA w=w4
MM74<9> In_1m CALIN1_3_ net0157_0_ AVSS nch l=LD w=w1mn
MM74<8> In_1m CALIN1_3_ net0157_1_ AVSS nch l=LD w=w1mn
MM74<7> In_1m CALIN1_3_ net0157_2_ AVSS nch l=LD w=w1mn
MM74<6> In_1m CALIN1_3_ net0157_3_ AVSS nch l=LD w=w1mn
MM90<0> In_3m CALIN3_0_ net078 AVSS nch l=LD w=w1mn
MM30<19> In_7m net0159 net0182_0_ AVSS nch l=LA w=w3
MM30<18> In_7m net0159 net0182_1_ AVSS nch l=LA w=w3
MM30<17> In_7m net0159 net0182_2_ AVSS nch l=LA w=w3
MM30<16> In_7m net0159 net0182_3_ AVSS nch l=LA w=w3
MM30<15> In_7m net0159 net0182_4_ AVSS nch l=LA w=w3
MM30<14> In_7m net0159 net0182_5_ AVSS nch l=LA w=w3
MM30<13> In_7m net0159 net0182_6_ AVSS nch l=LA w=w3
MM30<12> In_7m net0159 net0182_7_ AVSS nch l=LA w=w3
MM30<11> In_7m net0159 net0182_8_ AVSS nch l=LA w=w3
MM30<10> In_7m net0159 net0182_9_ AVSS nch l=LA w=w3
MM91<2> In_3m CALIN3_1_ net0186_0_ AVSS nch l=LD w=w1mn
MM91<1> In_3m CALIN3_1_ net0186_1_ AVSS nch l=LD w=w1mn
MM30<5> net0210_0_ net0159 net0187_0_ AVSS nch l=LA w=w3
MM30<4> net0210_1_ net0159 net0187_1_ AVSS nch l=LA w=w3
MM30<3> net0210_2_ net0159 net0187_2_ AVSS nch l=LA w=w3
MM28<19> In_5m net0159 net0171_0_ AVSS nch l=LA w=w3
MM28<18> In_5m net0159 net0171_1_ AVSS nch l=LA w=w3
MM28<17> In_5m net0159 net0171_2_ AVSS nch l=LA w=w3
MM28<16> In_5m net0159 net0171_3_ AVSS nch l=LA w=w3
MM28<15> In_5m net0159 net0171_4_ AVSS nch l=LA w=w3
MM28<14> In_5m net0159 net0171_5_ AVSS nch l=LA w=w3
MM28<13> In_5m net0159 net0171_6_ AVSS nch l=LA w=w3
MM28<12> In_5m net0159 net0171_7_ AVSS nch l=LA w=w3
MM28<11> In_5m net0159 net0171_8_ AVSS nch l=LA w=w3
MM28<10> In_5m net0159 net0171_9_ AVSS nch l=LA w=w3
MM28<5> net0196_0_ net0159 net0176_0_ AVSS nch l=LA w=w3
MM28<4> net0196_1_ net0159 net0176_1_ AVSS nch l=LA w=w3
MM28<3> net0196_2_ net0159 net0176_2_ AVSS nch l=LA w=w3
MM26<19> In_3m net0159 net0160_0_ AVSS nch l=LA w=w3
MM26<18> In_3m net0159 net0160_1_ AVSS nch l=LA w=w3
MM26<17> In_3m net0159 net0160_2_ AVSS nch l=LA w=w3
MM26<16> In_3m net0159 net0160_3_ AVSS nch l=LA w=w3
MM26<15> In_3m net0159 net0160_4_ AVSS nch l=LA w=w3
MM26<14> In_3m net0159 net0160_5_ AVSS nch l=LA w=w3
MM26<13> In_3m net0159 net0160_6_ AVSS nch l=LA w=w3
MM26<12> In_3m net0159 net0160_7_ AVSS nch l=LA w=w3
MM26<11> In_3m net0159 net0160_8_ AVSS nch l=LA w=w3
MM26<10> In_3m net0159 net0160_9_ AVSS nch l=LA w=w3
MM92<5> In_3m CALIN3_2_ net0220_0_ AVSS nch l=LD w=w1mn
MM92<4> In_3m CALIN3_2_ net0220_1_ AVSS nch l=LD w=w1mn
MM92<3> In_3m CALIN3_2_ net0220_2_ AVSS nch l=LD w=w1mn
MM29<0> net069 net0159 AVSS AVSS nch l=LA w=w4
MM23<2> net0154_0_ net0159 AVSS AVSS nch l=LA w=w4
MM23<1> net0154_1_ net0159 AVSS AVSS nch l=LA w=w4
MM30<2> net0214_0_ net0159 net0190_0_ AVSS nch l=LA w=w3
MM30<1> net0214_1_ net0159 net0190_1_ AVSS nch l=LA w=w3
MM27<2> net0179_0_ net0159 AVSS AVSS nch l=LA w=w4
MM27<1> net0179_1_ net0159 AVSS AVSS nch l=LA w=w4
MM101<9> In_7m CALIN7_3_ net0206_0_ AVSS nch l=LD w=w1mn
MM101<8> In_7m CALIN7_3_ net0206_1_ AVSS nch l=LD w=w1mn
MM101<7> In_7m CALIN7_3_ net0206_2_ AVSS nch l=LD w=w1mn
MM101<6> In_7m CALIN7_3_ net0206_3_ AVSS nch l=LD w=w1mn
MM26<2> net0186_0_ net0159 net0168_0_ AVSS nch l=LA w=w3
MM26<1> net0186_1_ net0159 net0168_1_ AVSS nch l=LA w=w3
MM27<5> net0176_0_ net0159 AVSS AVSS nch l=LA w=w4
MM27<4> net0176_1_ net0159 AVSS AVSS nch l=LA w=w4
MM27<3> net0176_2_ net0159 AVSS AVSS nch l=LA w=w4
MM26<0> net078 net0159 net077 AVSS nch l=LA w=w3
MM24<0> net0222 net0159 net081 AVSS nch l=LA w=w3
MM102<5> In_1m CALIN1_2_ net0227_0_ AVSS nch l=LD w=w1mn
MM102<4> In_1m CALIN1_2_ net0227_1_ AVSS nch l=LD w=w1mn
MM102<3> In_1m CALIN1_2_ net0227_2_ AVSS nch l=LD w=w1mn
MM25<2> net0168_0_ net0159 AVSS AVSS nch l=LA w=w4
MM25<1> net0168_1_ net0159 AVSS AVSS nch l=LA w=w4
MM104<0> In_1m CALIN1_0_ net0222 AVSS nch l=LD w=w1mn
MM29<2> net0190_0_ net0159 AVSS AVSS nch l=LA w=w4
MM29<1> net0190_1_ net0159 AVSS AVSS nch l=LA w=w4
MM103<2> In_1m CALIN1_1_ net0232_0_ AVSS nch l=LD w=w1mn
MM103<1> In_1m CALIN1_1_ net0232_1_ AVSS nch l=LD w=w1mn
MM30<9> net0206_0_ net0159 net0184_0_ AVSS nch l=LA w=w3
MM30<8> net0206_1_ net0159 net0184_1_ AVSS nch l=LA w=w3
MM30<7> net0206_2_ net0159 net0184_2_ AVSS nch l=LA w=w3
MM30<6> net0206_3_ net0159 net0184_3_ AVSS nch l=LA w=w3
MM28<9> net0192_0_ net0159 net0173_0_ AVSS nch l=LA w=w3
MM28<8> net0192_1_ net0159 net0173_1_ AVSS nch l=LA w=w3
MM28<7> net0192_2_ net0159 net0173_2_ AVSS nch l=LA w=w3
MM28<6> net0192_3_ net0159 net0173_3_ AVSS nch l=LA w=w3
MM29<19> net0182_0_ net0159 AVSS AVSS nch l=LA w=w4
MM29<18> net0182_1_ net0159 AVSS AVSS nch l=LA w=w4
MM29<17> net0182_2_ net0159 AVSS AVSS nch l=LA w=w4
MM29<16> net0182_3_ net0159 AVSS AVSS nch l=LA w=w4
MM29<15> net0182_4_ net0159 AVSS AVSS nch l=LA w=w4
MM29<14> net0182_5_ net0159 AVSS AVSS nch l=LA w=w4
MM29<13> net0182_6_ net0159 AVSS AVSS nch l=LA w=w4
MM29<12> net0182_7_ net0159 AVSS AVSS nch l=LA w=w4
MM29<11> net0182_8_ net0159 AVSS AVSS nch l=LA w=w4
MM29<10> net0182_9_ net0159 AVSS AVSS nch l=LA w=w4
MM26<9> net0178_0_ net0159 net0162_0_ AVSS nch l=LA w=w3
MM26<8> net0178_1_ net0159 net0162_1_ AVSS nch l=LA w=w3
MM26<7> net0178_2_ net0159 net0162_2_ AVSS nch l=LA w=w3
MM26<6> net0178_3_ net0159 net0162_3_ AVSS nch l=LA w=w3
MM27<19> net0171_0_ net0159 AVSS AVSS nch l=LA w=w4
MM27<18> net0171_1_ net0159 AVSS AVSS nch l=LA w=w4
MM27<17> net0171_2_ net0159 AVSS AVSS nch l=LA w=w4
MM27<16> net0171_3_ net0159 AVSS AVSS nch l=LA w=w4
MM27<15> net0171_4_ net0159 AVSS AVSS nch l=LA w=w4
MM27<14> net0171_5_ net0159 AVSS AVSS nch l=LA w=w4
MM27<13> net0171_6_ net0159 AVSS AVSS nch l=LA w=w4
MM27<12> net0171_7_ net0159 AVSS AVSS nch l=LA w=w4
MM27<11> net0171_8_ net0159 AVSS AVSS nch l=LA w=w4
MM27<10> net0171_9_ net0159 AVSS AVSS nch l=LA w=w4
MM24<9> net0157_0_ net0159 net0140_0_ AVSS nch l=LA w=w3
MM24<8> net0157_1_ net0159 net0140_1_ AVSS nch l=LA w=w3
MM24<7> net0157_2_ net0159 net0140_2_ AVSS nch l=LA w=w3
MM24<6> net0157_3_ net0159 net0140_3_ AVSS nch l=LA w=w3
MM25<19> net0160_0_ net0159 AVSS AVSS nch l=LA w=w4
MM25<18> net0160_1_ net0159 AVSS AVSS nch l=LA w=w4
MM25<17> net0160_2_ net0159 AVSS AVSS nch l=LA w=w4
MM25<16> net0160_3_ net0159 AVSS AVSS nch l=LA w=w4
MM25<15> net0160_4_ net0159 AVSS AVSS nch l=LA w=w4
MM25<14> net0160_5_ net0159 AVSS AVSS nch l=LA w=w4
MM25<13> net0160_6_ net0159 AVSS AVSS nch l=LA w=w4
MM25<12> net0160_7_ net0159 AVSS AVSS nch l=LA w=w4
MM25<11> net0160_8_ net0159 AVSS AVSS nch l=LA w=w4
MM25<10> net0160_9_ net0159 AVSS AVSS nch l=LA w=w4
MM13<19> net0159 net0159 net067_0_ AVSS nch l=LA w=w3
MM13<18> net0159 net0159 net067_1_ AVSS nch l=LA w=w3
MM13<17> net0159 net0159 net067_2_ AVSS nch l=LA w=w3
MM13<16> net0159 net0159 net067_3_ AVSS nch l=LA w=w3
MM13<15> net0159 net0159 net067_4_ AVSS nch l=LA w=w3
MM13<14> net0159 net0159 net067_5_ AVSS nch l=LA w=w3
MM13<13> net0159 net0159 net067_6_ AVSS nch l=LA w=w3
MM13<12> net0159 net0159 net067_7_ AVSS nch l=LA w=w3
MM13<11> net0159 net0159 net067_8_ AVSS nch l=LA w=w3
MM13<10> net0159 net0159 net067_9_ AVSS nch l=LA w=w3
MM13<9> net0159 net0159 net067_10_ AVSS nch l=LA w=w3
MM13<8> net0159 net0159 net067_11_ AVSS nch l=LA w=w3
MM13<7> net0159 net0159 net067_12_ AVSS nch l=LA w=w3
MM13<6> net0159 net0159 net067_13_ AVSS nch l=LA w=w3
MM13<5> net0159 net0159 net067_14_ AVSS nch l=LA w=w3
MM13<4> net0159 net0159 net067_15_ AVSS nch l=LA w=w3
MM13<3> net0159 net0159 net067_16_ AVSS nch l=LA w=w3
MM13<2> net0159 net0159 net067_17_ AVSS nch l=LA w=w3
MM13<1> net0159 net0159 net067_18_ AVSS nch l=LA w=w3
MM13<0> net0159 net0159 net067_19_ AVSS nch l=LA w=w3
MM23<19> net0136_0_ net0159 AVSS AVSS nch l=LA w=w4
MM23<18> net0136_1_ net0159 AVSS AVSS nch l=LA w=w4
MM23<17> net0136_2_ net0159 AVSS AVSS nch l=LA w=w4
MM23<16> net0136_3_ net0159 AVSS AVSS nch l=LA w=w4
MM23<15> net0136_4_ net0159 AVSS AVSS nch l=LA w=w4
MM23<14> net0136_5_ net0159 AVSS AVSS nch l=LA w=w4
MM23<13> net0136_6_ net0159 AVSS AVSS nch l=LA w=w4
MM23<12> net0136_7_ net0159 AVSS AVSS nch l=LA w=w4
MM23<11> net0136_8_ net0159 AVSS AVSS nch l=LA w=w4
MM23<10> net0136_9_ net0159 AVSS AVSS nch l=LA w=w4
MM14<19> net067_0_ net0159 AVSS AVSS nch l=LA w=w4
MM14<18> net067_1_ net0159 AVSS AVSS nch l=LA w=w4
MM14<17> net067_2_ net0159 AVSS AVSS nch l=LA w=w4
MM14<16> net067_3_ net0159 AVSS AVSS nch l=LA w=w4
MM14<15> net067_4_ net0159 AVSS AVSS nch l=LA w=w4
MM14<14> net067_5_ net0159 AVSS AVSS nch l=LA w=w4
MM14<13> net067_6_ net0159 AVSS AVSS nch l=LA w=w4
MM14<12> net067_7_ net0159 AVSS AVSS nch l=LA w=w4
MM14<11> net067_8_ net0159 AVSS AVSS nch l=LA w=w4
MM14<10> net067_9_ net0159 AVSS AVSS nch l=LA w=w4
MM14<9> net067_10_ net0159 AVSS AVSS nch l=LA w=w4
MM14<8> net067_11_ net0159 AVSS AVSS nch l=LA w=w4
MM14<7> net067_12_ net0159 AVSS AVSS nch l=LA w=w4
MM14<6> net067_13_ net0159 AVSS AVSS nch l=LA w=w4
MM14<5> net067_14_ net0159 AVSS AVSS nch l=LA w=w4
MM14<4> net067_15_ net0159 AVSS AVSS nch l=LA w=w4
MM14<3> net067_16_ net0159 AVSS AVSS nch l=LA w=w4
MM14<2> net067_17_ net0159 AVSS AVSS nch l=LA w=w4
MM14<1> net067_18_ net0159 AVSS AVSS nch l=LA w=w4
MM14<0> net067_19_ net0159 AVSS AVSS nch l=LA w=w4
MM4 net011 Ibg AVSS AVSS nch l=LE w=w
MM3 Ibg Ibg AVSS AVSS nch l=LE w=w
MM33<9> net0163_0_ net011 net089_0_ AVDD pch l=LA w=w2p
MM33<8> net0163_1_ net011 net089_1_ AVDD pch l=LA w=w2p
MM33<7> net0163_2_ net011 net089_2_ AVDD pch l=LA w=w2p
MM33<6> net0163_3_ net011 net089_3_ AVDD pch l=LA w=w2p
MM82<2> Ip_5m CALIP5_1_ net0180_0_ AVDD pch l=LB w=w1m
MM82<1> Ip_5m CALIP5_1_ net0180_1_ AVDD pch l=LB w=w1m
MM31<0> net0107 net011 AVDD AVDD pch l=LA w=w3p
MM33<2> net0169_0_ net011 net091_0_ AVDD pch l=LA w=w2p
MM33<1> net0169_1_ net011 net091_1_ AVDD pch l=LA w=w2p
MM86<5> Ip_7m CALIP7_2_ net0188_0_ AVDD pch l=LB w=w1m
MM86<4> Ip_7m CALIP7_2_ net0188_1_ AVDD pch l=LB w=w1m
MM86<3> Ip_7m CALIP7_2_ net0188_2_ AVDD pch l=LB w=w1m
MM85<2> Ip_7m CALIP7_1_ net0191_0_ AVDD pch l=LB w=w1m
MM85<1> Ip_7m CALIP7_1_ net0191_1_ AVDD pch l=LB w=w1m
MM84<0> Ip_7m CALIP7_0_ net057 AVDD pch l=LB w=w1m
MM83<0> Ip_5m CALIP5_0_ net0195 AVDD pch l=LB w=w1m
MM38<0> net041 net011 AVDD AVDD pch l=LA w=w3p
MM31<5> net085_0_ net011 AVDD AVDD pch l=LA w=w3p
MM31<4> net085_1_ net011 AVDD AVDD pch l=LA w=w3p
MM31<3> net085_2_ net011 AVDD AVDD pch l=LA w=w3p
MM37<2> net0191_0_ net011 net0101_0_ AVDD pch l=LA w=w2p
MM37<1> net0191_1_ net011 net0101_1_ AVDD pch l=LA w=w2p
MM36<5> net0177_0_ net011 net096_0_ AVDD pch l=LA w=w2p
MM36<4> net0177_1_ net011 net096_1_ AVDD pch l=LA w=w2p
MM36<3> net0177_2_ net011 net096_2_ AVDD pch l=LA w=w2p
MM87<9> Ip_7m CALIP7_3_ net0185_0_ AVDD pch l=LB w=w1m
MM87<8> Ip_7m CALIP7_3_ net0185_1_ AVDD pch l=LB w=w1m
MM87<7> Ip_7m CALIP7_3_ net0185_2_ AVDD pch l=LB w=w1m
MM87<6> Ip_7m CALIP7_3_ net0185_3_ AVDD pch l=LB w=w1m
MM32<2> net0113_0_ net011 net086_0_ AVDD pch l=LA w=w2p
MM32<1> net0113_1_ net011 net086_1_ AVDD pch l=LA w=w2p
MM81<5> Ip_5m CALIP5_2_ net0177_0_ AVDD pch l=LB w=w1m
MM81<4> Ip_5m CALIP5_2_ net0177_1_ AVDD pch l=LB w=w1m
MM81<3> Ip_5m CALIP5_2_ net0177_2_ AVDD pch l=LB w=w1m
MM80<9> Ip_5m CALIP5_3_ net0174_0_ AVDD pch l=LB w=w1m
MM80<8> Ip_5m CALIP5_3_ net0174_1_ AVDD pch l=LB w=w1m
MM80<7> Ip_5m CALIP5_3_ net0174_2_ AVDD pch l=LB w=w1m
MM80<6> Ip_5m CALIP5_3_ net0174_3_ AVDD pch l=LB w=w1m
MM79<9> Ip_3m CALIP3_3_ net0163_0_ AVDD pch l=LB w=w1m
MM79<8> Ip_3m CALIP3_3_ net0163_1_ AVDD pch l=LB w=w1m
MM79<7> Ip_3m CALIP3_3_ net0163_2_ AVDD pch l=LB w=w1m
MM79<6> Ip_3m CALIP3_3_ net0163_3_ AVDD pch l=LB w=w1m
MM36<9> net0174_0_ net011 net095_0_ AVDD pch l=LA w=w2p
MM36<8> net0174_1_ net011 net095_1_ AVDD pch l=LA w=w2p
MM36<7> net0174_2_ net011 net095_2_ AVDD pch l=LA w=w2p
MM36<6> net0174_3_ net011 net095_3_ AVDD pch l=LA w=w2p
MM78<5> Ip_3m CALIP3_2_ net0166_0_ AVDD pch l=LB w=w1m
MM78<4> Ip_3m CALIP3_2_ net0166_1_ AVDD pch l=LB w=w1m
MM78<3> Ip_3m CALIP3_2_ net0166_2_ AVDD pch l=LB w=w1m
MM37<0> net057 net011 net041 AVDD pch l=LA w=w2p
MM32<0> net0117 net011 net0107 AVDD pch l=LA w=w2p
MM35<5> net096_0_ net011 AVDD AVDD pch l=LA w=w3p
MM35<4> net096_1_ net011 AVDD AVDD pch l=LA w=w3p
MM35<3> net096_2_ net011 AVDD AVDD pch l=LA w=w3p
MM33<0> net033 net011 net0105 AVDD pch l=LA w=w2p
MM31<2> net086_0_ net011 AVDD AVDD pch l=LA w=w3p
MM31<1> net086_1_ net011 AVDD AVDD pch l=LA w=w3p
MM36<2> net0180_0_ net011 net097_0_ AVDD pch l=LA w=w2p
MM36<1> net0180_1_ net011 net097_1_ AVDD pch l=LA w=w2p
MM34<2> net091_0_ net011 AVDD AVDD pch l=LA w=w3p
MM34<1> net091_1_ net011 AVDD AVDD pch l=LA w=w3p
MM31<9> net084_0_ net011 AVDD AVDD pch l=LA w=w3p
MM31<8> net084_1_ net011 AVDD AVDD pch l=LA w=w3p
MM31<7> net084_2_ net011 AVDD AVDD pch l=LA w=w3p
MM31<6> net084_3_ net011 AVDD AVDD pch l=LA w=w3p
MM35<2> net097_0_ net011 AVDD AVDD pch l=LA w=w3p
MM35<1> net097_1_ net011 AVDD AVDD pch l=LA w=w3p
MM34<0> net0105 net011 AVDD AVDD pch l=LA w=w3p
MM38<2> net0101_0_ net011 AVDD AVDD pch l=LA w=w3p
MM38<1> net0101_1_ net011 AVDD AVDD pch l=LA w=w3p
MM32<5> net0125_0_ net011 net085_0_ AVDD pch l=LA w=w2p
MM32<4> net0125_1_ net011 net085_1_ AVDD pch l=LA w=w2p
MM32<3> net0125_2_ net011 net085_2_ AVDD pch l=LA w=w2p
MM37<5> net0188_0_ net011 net0100_0_ AVDD pch l=LA w=w2p
MM37<4> net0188_1_ net011 net0100_1_ AVDD pch l=LA w=w2p
MM37<3> net0188_2_ net011 net0100_2_ AVDD pch l=LA w=w2p
MM35<0> net0106 net011 AVDD AVDD pch l=LA w=w3p
MM33<5> net0166_0_ net011 net090_0_ AVDD pch l=LA w=w2p
MM33<4> net0166_1_ net011 net090_1_ AVDD pch l=LA w=w2p
MM33<3> net0166_2_ net011 net090_2_ AVDD pch l=LA w=w2p
MM32<9> net0124_0_ net011 net084_0_ AVDD pch l=LA w=w2p
MM32<8> net0124_1_ net011 net084_1_ AVDD pch l=LA w=w2p
MM32<7> net0124_2_ net011 net084_2_ AVDD pch l=LA w=w2p
MM32<6> net0124_3_ net011 net084_3_ AVDD pch l=LA w=w2p
MM35<19> net093_0_ net011 AVDD AVDD pch l=LA w=w3p
MM35<18> net093_1_ net011 AVDD AVDD pch l=LA w=w3p
MM35<17> net093_2_ net011 AVDD AVDD pch l=LA w=w3p
MM35<16> net093_3_ net011 AVDD AVDD pch l=LA w=w3p
MM35<15> net093_4_ net011 AVDD AVDD pch l=LA w=w3p
MM35<14> net093_5_ net011 AVDD AVDD pch l=LA w=w3p
MM35<13> net093_6_ net011 AVDD AVDD pch l=LA w=w3p
MM35<12> net093_7_ net011 AVDD AVDD pch l=LA w=w3p
MM35<11> net093_8_ net011 AVDD AVDD pch l=LA w=w3p
MM35<10> net093_9_ net011 AVDD AVDD pch l=LA w=w3p
MM31<19> net083_0_ net011 AVDD AVDD pch l=LA w=w3p
MM31<18> net083_1_ net011 AVDD AVDD pch l=LA w=w3p
MM31<17> net083_2_ net011 AVDD AVDD pch l=LA w=w3p
MM31<16> net083_3_ net011 AVDD AVDD pch l=LA w=w3p
MM31<15> net083_4_ net011 AVDD AVDD pch l=LA w=w3p
MM31<14> net083_5_ net011 AVDD AVDD pch l=LA w=w3p
MM31<13> net083_6_ net011 AVDD AVDD pch l=LA w=w3p
MM31<12> net083_7_ net011 AVDD AVDD pch l=LA w=w3p
MM31<11> net083_8_ net011 AVDD AVDD pch l=LA w=w3p
MM31<10> net083_9_ net011 AVDD AVDD pch l=LA w=w3p
MM72<9> Ip_1m CALIP1_3_ net0124_0_ AVDD pch l=LB w=w1m
MM72<8> Ip_1m CALIP1_3_ net0124_1_ AVDD pch l=LB w=w1m
MM72<7> Ip_1m CALIP1_3_ net0124_2_ AVDD pch l=LB w=w1m
MM72<6> Ip_1m CALIP1_3_ net0124_3_ AVDD pch l=LB w=w1m
MM76<0> Ip_3m CALIP3_0_ net033 AVDD pch l=LB w=w1m
MM72<0> Ip_1m CALIP1_0_ net0117 AVDD pch l=LB w=w1m
MM72<2> Ip_1m CALIP1_1_ net0113_0_ AVDD pch l=LB w=w1m
MM72<1> Ip_1m CALIP1_1_ net0113_1_ AVDD pch l=LB w=w1m
MM72<5> Ip_1m CALIP1_2_ net0125_0_ AVDD pch l=LB w=w1m
MM72<4> Ip_1m CALIP1_2_ net0125_1_ AVDD pch l=LB w=w1m
MM72<3> Ip_1m CALIP1_2_ net0125_2_ AVDD pch l=LB w=w1m
MM38<19> net098_0_ net011 AVDD AVDD pch l=LA w=w3p
MM38<18> net098_1_ net011 AVDD AVDD pch l=LA w=w3p
MM38<17> net098_2_ net011 AVDD AVDD pch l=LA w=w3p
MM38<16> net098_3_ net011 AVDD AVDD pch l=LA w=w3p
MM38<15> net098_4_ net011 AVDD AVDD pch l=LA w=w3p
MM38<14> net098_5_ net011 AVDD AVDD pch l=LA w=w3p
MM38<13> net098_6_ net011 AVDD AVDD pch l=LA w=w3p
MM38<12> net098_7_ net011 AVDD AVDD pch l=LA w=w3p
MM38<11> net098_8_ net011 AVDD AVDD pch l=LA w=w3p
MM38<10> net098_9_ net011 AVDD AVDD pch l=LA w=w3p
MM77<2> Ip_3m CALIP3_1_ net0169_0_ AVDD pch l=LB w=w1m
MM77<1> Ip_3m CALIP3_1_ net0169_1_ AVDD pch l=LB w=w1m
MM37<9> net0185_0_ net011 net099_0_ AVDD pch l=LA w=w2p
MM37<8> net0185_1_ net011 net099_1_ AVDD pch l=LA w=w2p
MM37<7> net0185_2_ net011 net099_2_ AVDD pch l=LA w=w2p
MM37<6> net0185_3_ net011 net099_3_ AVDD pch l=LA w=w2p
MM36<0> net0195 net011 net0106 AVDD pch l=LA w=w2p
MM38<5> net0100_0_ net011 AVDD AVDD pch l=LA w=w3p
MM38<4> net0100_1_ net011 AVDD AVDD pch l=LA w=w3p
MM38<3> net0100_2_ net011 AVDD AVDD pch l=LA w=w3p
MM34<19> net088_0_ net011 AVDD AVDD pch l=LA w=w3p
MM34<18> net088_1_ net011 AVDD AVDD pch l=LA w=w3p
MM34<17> net088_2_ net011 AVDD AVDD pch l=LA w=w3p
MM34<16> net088_3_ net011 AVDD AVDD pch l=LA w=w3p
MM34<15> net088_4_ net011 AVDD AVDD pch l=LA w=w3p
MM34<14> net088_5_ net011 AVDD AVDD pch l=LA w=w3p
MM34<13> net088_6_ net011 AVDD AVDD pch l=LA w=w3p
MM34<12> net088_7_ net011 AVDD AVDD pch l=LA w=w3p
MM34<11> net088_8_ net011 AVDD AVDD pch l=LA w=w3p
MM34<10> net088_9_ net011 AVDD AVDD pch l=LA w=w3p
MM38<9> net099_0_ net011 AVDD AVDD pch l=LA w=w3p
MM38<8> net099_1_ net011 AVDD AVDD pch l=LA w=w3p
MM38<7> net099_2_ net011 AVDD AVDD pch l=LA w=w3p
MM38<6> net099_3_ net011 AVDD AVDD pch l=LA w=w3p
MM37<19> Ip_7m net011 net098_0_ AVDD pch l=LA w=w2p
MM37<18> Ip_7m net011 net098_1_ AVDD pch l=LA w=w2p
MM37<17> Ip_7m net011 net098_2_ AVDD pch l=LA w=w2p
MM37<16> Ip_7m net011 net098_3_ AVDD pch l=LA w=w2p
MM37<15> Ip_7m net011 net098_4_ AVDD pch l=LA w=w2p
MM37<14> Ip_7m net011 net098_5_ AVDD pch l=LA w=w2p
MM37<13> Ip_7m net011 net098_6_ AVDD pch l=LA w=w2p
MM37<12> Ip_7m net011 net098_7_ AVDD pch l=LA w=w2p
MM37<11> Ip_7m net011 net098_8_ AVDD pch l=LA w=w2p
MM37<10> Ip_7m net011 net098_9_ AVDD pch l=LA w=w2p
MM35<9> net095_0_ net011 AVDD AVDD pch l=LA w=w3p
MM35<8> net095_1_ net011 AVDD AVDD pch l=LA w=w3p
MM35<7> net095_2_ net011 AVDD AVDD pch l=LA w=w3p
MM35<6> net095_3_ net011 AVDD AVDD pch l=LA w=w3p
MM34<9> net089_0_ net011 AVDD AVDD pch l=LA w=w3p
MM34<8> net089_1_ net011 AVDD AVDD pch l=LA w=w3p
MM34<7> net089_2_ net011 AVDD AVDD pch l=LA w=w3p
MM34<6> net089_3_ net011 AVDD AVDD pch l=LA w=w3p
MM36<19> Ip_5m net011 net093_0_ AVDD pch l=LA w=w2p
MM36<18> Ip_5m net011 net093_1_ AVDD pch l=LA w=w2p
MM36<17> Ip_5m net011 net093_2_ AVDD pch l=LA w=w2p
MM36<16> Ip_5m net011 net093_3_ AVDD pch l=LA w=w2p
MM36<15> Ip_5m net011 net093_4_ AVDD pch l=LA w=w2p
MM36<14> Ip_5m net011 net093_5_ AVDD pch l=LA w=w2p
MM36<13> Ip_5m net011 net093_6_ AVDD pch l=LA w=w2p
MM36<12> Ip_5m net011 net093_7_ AVDD pch l=LA w=w2p
MM36<11> Ip_5m net011 net093_8_ AVDD pch l=LA w=w2p
MM36<10> Ip_5m net011 net093_9_ AVDD pch l=LA w=w2p
MM33<19> Ip_3m net011 net088_0_ AVDD pch l=LA w=w2p
MM33<18> Ip_3m net011 net088_1_ AVDD pch l=LA w=w2p
MM33<17> Ip_3m net011 net088_2_ AVDD pch l=LA w=w2p
MM33<16> Ip_3m net011 net088_3_ AVDD pch l=LA w=w2p
MM33<15> Ip_3m net011 net088_4_ AVDD pch l=LA w=w2p
MM33<14> Ip_3m net011 net088_5_ AVDD pch l=LA w=w2p
MM33<13> Ip_3m net011 net088_6_ AVDD pch l=LA w=w2p
MM33<12> Ip_3m net011 net088_7_ AVDD pch l=LA w=w2p
MM33<11> Ip_3m net011 net088_8_ AVDD pch l=LA w=w2p
MM33<10> Ip_3m net011 net088_9_ AVDD pch l=LA w=w2p
MM34<5> net090_0_ net011 AVDD AVDD pch l=LA w=w3p
MM34<4> net090_1_ net011 AVDD AVDD pch l=LA w=w3p
MM34<3> net090_2_ net011 AVDD AVDD pch l=LA w=w3p
MM32<19> Ip_1m net011 net083_0_ AVDD pch l=LA w=w2p
MM32<18> Ip_1m net011 net083_1_ AVDD pch l=LA w=w2p
MM32<17> Ip_1m net011 net083_2_ AVDD pch l=LA w=w2p
MM32<16> Ip_1m net011 net083_3_ AVDD pch l=LA w=w2p
MM32<15> Ip_1m net011 net083_4_ AVDD pch l=LA w=w2p
MM32<14> Ip_1m net011 net083_5_ AVDD pch l=LA w=w2p
MM32<13> Ip_1m net011 net083_6_ AVDD pch l=LA w=w2p
MM32<12> Ip_1m net011 net083_7_ AVDD pch l=LA w=w2p
MM32<11> Ip_1m net011 net083_8_ AVDD pch l=LA w=w2p
MM32<10> Ip_1m net011 net083_9_ AVDD pch l=LA w=w2p
MM10<19> net0159 net011 net046_0_ AVDD pch l=LA w=w2p
MM10<18> net0159 net011 net046_1_ AVDD pch l=LA w=w2p
MM10<17> net0159 net011 net046_2_ AVDD pch l=LA w=w2p
MM10<16> net0159 net011 net046_3_ AVDD pch l=LA w=w2p
MM10<15> net0159 net011 net046_4_ AVDD pch l=LA w=w2p
MM10<14> net0159 net011 net046_5_ AVDD pch l=LA w=w2p
MM10<13> net0159 net011 net046_6_ AVDD pch l=LA w=w2p
MM10<12> net0159 net011 net046_7_ AVDD pch l=LA w=w2p
MM10<11> net0159 net011 net046_8_ AVDD pch l=LA w=w2p
MM10<10> net0159 net011 net046_9_ AVDD pch l=LA w=w2p
MM10<9> net0159 net011 net046_10_ AVDD pch l=LA w=w2p
MM10<8> net0159 net011 net046_11_ AVDD pch l=LA w=w2p
MM10<7> net0159 net011 net046_12_ AVDD pch l=LA w=w2p
MM10<6> net0159 net011 net046_13_ AVDD pch l=LA w=w2p
MM10<5> net0159 net011 net046_14_ AVDD pch l=LA w=w2p
MM10<4> net0159 net011 net046_15_ AVDD pch l=LA w=w2p
MM10<3> net0159 net011 net046_16_ AVDD pch l=LA w=w2p
MM10<2> net0159 net011 net046_17_ AVDD pch l=LA w=w2p
MM10<1> net0159 net011 net046_18_ AVDD pch l=LA w=w2p
MM10<0> net0159 net011 net046_19_ AVDD pch l=LA w=w2p
MM7<19> net011 net011 net045_0_ AVDD pch l=LA w=w2p
MM7<18> net011 net011 net045_1_ AVDD pch l=LA w=w2p
MM7<17> net011 net011 net045_2_ AVDD pch l=LA w=w2p
MM7<16> net011 net011 net045_3_ AVDD pch l=LA w=w2p
MM7<15> net011 net011 net045_4_ AVDD pch l=LA w=w2p
MM7<14> net011 net011 net045_5_ AVDD pch l=LA w=w2p
MM7<13> net011 net011 net045_6_ AVDD pch l=LA w=w2p
MM7<12> net011 net011 net045_7_ AVDD pch l=LA w=w2p
MM7<11> net011 net011 net045_8_ AVDD pch l=LA w=w2p
MM7<10> net011 net011 net045_9_ AVDD pch l=LA w=w2p
MM7<9> net011 net011 net045_10_ AVDD pch l=LA w=w2p
MM7<8> net011 net011 net045_11_ AVDD pch l=LA w=w2p
MM7<7> net011 net011 net045_12_ AVDD pch l=LA w=w2p
MM7<6> net011 net011 net045_13_ AVDD pch l=LA w=w2p
MM7<5> net011 net011 net045_14_ AVDD pch l=LA w=w2p
MM7<4> net011 net011 net045_15_ AVDD pch l=LA w=w2p
MM7<3> net011 net011 net045_16_ AVDD pch l=LA w=w2p
MM7<2> net011 net011 net045_17_ AVDD pch l=LA w=w2p
MM7<1> net011 net011 net045_18_ AVDD pch l=LA w=w2p
MM7<0> net011 net011 net045_19_ AVDD pch l=LA w=w2p
MM9<19> net046_0_ net011 AVDD AVDD pch l=LA w=w3p
MM9<18> net046_1_ net011 AVDD AVDD pch l=LA w=w3p
MM9<17> net046_2_ net011 AVDD AVDD pch l=LA w=w3p
MM9<16> net046_3_ net011 AVDD AVDD pch l=LA w=w3p
MM9<15> net046_4_ net011 AVDD AVDD pch l=LA w=w3p
MM9<14> net046_5_ net011 AVDD AVDD pch l=LA w=w3p
MM9<13> net046_6_ net011 AVDD AVDD pch l=LA w=w3p
MM9<12> net046_7_ net011 AVDD AVDD pch l=LA w=w3p
MM9<11> net046_8_ net011 AVDD AVDD pch l=LA w=w3p
MM9<10> net046_9_ net011 AVDD AVDD pch l=LA w=w3p
MM9<9> net046_10_ net011 AVDD AVDD pch l=LA w=w3p
MM9<8> net046_11_ net011 AVDD AVDD pch l=LA w=w3p
MM9<7> net046_12_ net011 AVDD AVDD pch l=LA w=w3p
MM9<6> net046_13_ net011 AVDD AVDD pch l=LA w=w3p
MM9<5> net046_14_ net011 AVDD AVDD pch l=LA w=w3p
MM9<4> net046_15_ net011 AVDD AVDD pch l=LA w=w3p
MM9<3> net046_16_ net011 AVDD AVDD pch l=LA w=w3p
MM9<2> net046_17_ net011 AVDD AVDD pch l=LA w=w3p
MM9<1> net046_18_ net011 AVDD AVDD pch l=LA w=w3p
MM9<0> net046_19_ net011 AVDD AVDD pch l=LA w=w3p
MM8<19> net045_0_ net011 AVDD AVDD pch l=LA w=w3p
MM8<18> net045_1_ net011 AVDD AVDD pch l=LA w=w3p
MM8<17> net045_2_ net011 AVDD AVDD pch l=LA w=w3p
MM8<16> net045_3_ net011 AVDD AVDD pch l=LA w=w3p
MM8<15> net045_4_ net011 AVDD AVDD pch l=LA w=w3p
MM8<14> net045_5_ net011 AVDD AVDD pch l=LA w=w3p
MM8<13> net045_6_ net011 AVDD AVDD pch l=LA w=w3p
MM8<12> net045_7_ net011 AVDD AVDD pch l=LA w=w3p
MM8<11> net045_8_ net011 AVDD AVDD pch l=LA w=w3p
MM8<10> net045_9_ net011 AVDD AVDD pch l=LA w=w3p
MM8<9> net045_10_ net011 AVDD AVDD pch l=LA w=w3p
MM8<8> net045_11_ net011 AVDD AVDD pch l=LA w=w3p
MM8<7> net045_12_ net011 AVDD AVDD pch l=LA w=w3p
MM8<6> net045_13_ net011 AVDD AVDD pch l=LA w=w3p
MM8<5> net045_14_ net011 AVDD AVDD pch l=LA w=w3p
MM8<4> net045_15_ net011 AVDD AVDD pch l=LA w=w3p
MM8<3> net045_16_ net011 AVDD AVDD pch l=LA w=w3p
MM8<2> net045_17_ net011 AVDD AVDD pch l=LA w=w3p
MM8<1> net045_18_ net011 AVDD AVDD pch l=LA w=w3p
MM8<0> net045_19_ net011 AVDD AVDD pch l=LA w=w3p
.ENDS

************************************************************************
* Library Name: tcbn65lplvt
* Cell Name:    ND2D1LVT
* View Name:    schematic
************************************************************************

.SUBCKT ND2D1LVT A1 A2 VDD VSS ZN
*.PININFO A1:I A2:I ZN:O VDD:B VSS:B
MMI1-M_u3 ZN A1 net1 VSS lvtnfet l=LF w=WE
MMI1-M_u4 net1 A2 VSS VSS lvtnfet l=LF w=WE
MMI1-M_u1 ZN A1 VDD VDD lvtpfet l=LF w=WF
MMI1-M_u2 ZN A2 VDD VDD lvtpfet l=LF w=WF
.ENDS

************************************************************************
* Library Name: tcbn65lplvt
* Cell Name:    INVD4LVT
* View Name:    schematic
************************************************************************

.SUBCKT INVD4LVT I VDD VSS ZN
*.PININFO I:I ZN:O VDD:B VSS:B
MMU1_0-M_u2 ZN I VSS VSS lvtnfet l=LF w=WE
MMU1_3-M_u2 ZN I VSS VSS lvtnfet l=LF w=WE
MMU1_1-M_u2 ZN I VSS VSS lvtnfet l=LF w=WE