************************************************************************
* auCdl Netlist:
* 
* Library Name:  AP_SerDes
* Top Cell Name: TX_8l12b
* View Name:     schematic
* Netlisted on:  Apr 12 16:58:00 2019
************************************************************************

*.BIPOLAR
*.RESI = 2000 
*.RESVAL
*.CAPVAL
*.DIOPERI
*.DIOAREA
*.EQUATION
*.SCALE METER
*.MEGA
.PARAM



************************************************************************
* Library Name: AP_SerDes
* Cell Name:    Bias_v2
* View Name:    schematic
************************************************************************

.SUBCKT Bias_v2 AVDD AVSS CALIN1[3] CALIN1[2] CALIN1[1] CALIN1[0] CALIN3[3] 
+ CALIN3[2] CALIN3[1] CALIN3[0] CALIN5[3] CALIN5[2] CALIN5[1] CALIN5[0] 
+ CALIN7[3] CALIN7[2] CALIN7[1] CALIN7[0] CALIP1[3] CALIP1[2] CALIP1[1] 
+ CALIP1[0] CALIP3[3] CALIP3[2] CALIP3[1] CALIP3[0] CALIP5[3] CALIP5[2] 
+ CALIP5[1] CALIP5[0] CALIP7[3] CALIP7[2] CALIP7[1] CALIP7[0] Ibg In_1m In_3m 
+ In_5m In_7m Ip_1m Ip_3m Ip_5m Ip_7m
*.PININFO CALIN1[3]:I CALIN1[2]:I CALIN1[1]:I CALIN1[0]:I CALIN3[3]:I 
*.PININFO CALIN3[2]:I CALIN3[1]:I CALIN3[0]:I CALIN5[3]:I CALIN5[2]:I 
*.PININFO CALIN5[1]:I CALIN5[0]:I CALIN7[3]:I CALIN7[2]:I CALIN7[1]:I 
*.PININFO CALIN7[0]:I CALIP1[3]:I CALIP1[2]:I CALIP1[1]:I CALIP1[0]:I 
*.PININFO CALIP3[3]:I CALIP3[2]:I CALIP3[1]:I CALIP3[0]:I CALIP5[3]:I 
*.PININFO CALIP5[2]:I CALIP5[1]:I CALIP5[0]:I CALIP7[3]:I CALIP7[2]:I 
*.PININFO CALIP7[1]:I CALIP7[0]:I AVDD:B AVSS:B Ibg:B In_1m:B In_3m:B In_5m:B 
*.PININFO In_7m:B Ip_1m:B Ip_3m:B Ip_5m:B Ip_7m:B
MM24<19> In_1m net0159 net0136[0] AVSS nch l=LA w=w3 m=20
MM24<18> In_1m net0159 net0136[1] AVSS nch l=LA w=w3 m=20
MM24<17> In_1m net0159 net0136[2] AVSS nch l=LA w=w3 m=20
MM24<16> In_1m net0159 net0136[3] AVSS nch l=LA w=w3 m=20
MM24<15> In_1m net0159 net0136[4] AVSS nch l=LA w=w3 m=20
MM24<14> In_1m net0159 net0136[5] AVSS nch l=LA w=w3 m=20
MM24<13> In_1m net0159 net0136[6] AVSS nch l=LA w=w3 m=20
MM24<12> In_1m net0159 net0136[7] AVSS nch l=LA w=w3 m=20
MM24<11> In_1m net0159 net0136[8] AVSS nch l=LA w=w3 m=20
MM24<10> In_1m net0159 net0136[9] AVSS nch l=LA w=w3 m=20
MM29<9> net0184[0] net0159 AVSS AVSS nch l=LA w=w4 m=140
MM29<8> net0184[1] net0159 AVSS AVSS nch l=LA w=w4 m=140
MM29<7> net0184[2] net0159 AVSS AVSS nch l=LA w=w4 m=140
MM29<6> net0184[3] net0159 AVSS AVSS nch l=LA w=w4 m=140
MM27<0> net073 net0159 AVSS AVSS nch l=LA w=w4 m=100
MM26<5> net0220[0] net0159 net0165[0] AVSS nch l=LA w=w3 m=60
MM26<4> net0220[1] net0159 net0165[1] AVSS nch l=LA w=w3 m=60
MM26<3> net0220[2] net0159 net0165[2] AVSS nch l=LA w=w3 m=60
MM25<9> net0162[0] net0159 AVSS AVSS nch l=LA w=w4 m=60
MM25<8> net0162[1] net0159 AVSS AVSS nch l=LA w=w4 m=60
MM25<7> net0162[2] net0159 AVSS AVSS nch l=LA w=w4 m=60
MM25<6> net0162[3] net0159 AVSS AVSS nch l=LA w=w4 m=60
MM23<0> net081 net0159 AVSS AVSS nch l=LA w=w4 m=20
MM29<5> net0187[0] net0159 AVSS AVSS nch l=LA w=w4 m=140
MM29<4> net0187[1] net0159 AVSS AVSS nch l=LA w=w4 m=140
MM29<3> net0187[2] net0159 AVSS AVSS nch l=LA w=w4 m=140
MM28<0> net0228 net0159 net073 AVSS nch l=LA w=w3 m=100
MM24<2> net0232[0] net0159 net0154[0] AVSS nch l=LA w=w3 m=20
MM24<1> net0232[1] net0159 net0154[1] AVSS nch l=LA w=w3 m=20
MM28<2> net0200[0] net0159 net0179[0] AVSS nch l=LA w=w3 m=100
MM28<1> net0200[1] net0159 net0179[1] AVSS nch l=LA w=w3 m=100
MM95<5> In_5m CALIN5[2] net0196[0] AVSS nch l=LD w=w1mn m=100
MM95<4> In_5m CALIN5[2] net0196[1] AVSS nch l=LD w=w1mn m=100
MM95<3> In_5m CALIN5[2] net0196[2] AVSS nch l=LD w=w1mn m=100
MM24<5> net0227[0] net0159 net0145[0] AVSS nch l=LA w=w3 m=20
MM24<4> net0227[1] net0159 net0145[1] AVSS nch l=LA w=w3 m=20
MM24<3> net0227[2] net0159 net0145[2] AVSS nch l=LA w=w3 m=20
MM23<9> net0140[0] net0159 AVSS AVSS nch l=LA w=w4 m=20
MM23<8> net0140[1] net0159 AVSS AVSS nch l=LA w=w4 m=20
MM23<7> net0140[2] net0159 AVSS AVSS nch l=LA w=w4 m=20
MM23<6> net0140[3] net0159 AVSS AVSS nch l=LA w=w4 m=20
MM27<9> net0173[0] net0159 AVSS AVSS nch l=LA w=w4 m=100
MM27<8> net0173[1] net0159 AVSS AVSS nch l=LA w=w4 m=100
MM27<7> net0173[2] net0159 AVSS AVSS nch l=LA w=w4 m=100
MM27<6> net0173[3] net0159 AVSS AVSS nch l=LA w=w4 m=100
MM25<0> net077 net0159 AVSS AVSS nch l=LA w=w4 m=60
MM100<5> In_7m CALIN7[2] net0210[0] AVSS nch l=LD w=w1mn m=140
MM100<4> In_7m CALIN7[2] net0210[1] AVSS nch l=LD w=w1mn m=140
MM100<3> In_7m CALIN7[2] net0210[2] AVSS nch l=LD w=w1mn m=140
MM99<2> In_7m CALIN7[1] net0214[0] AVSS nch l=LD w=w1mn m=140
MM99<1> In_7m CALIN7[1] net0214[1] AVSS nch l=LD w=w1mn m=140
MM98<0> In_7m CALIN7[0] net062 AVSS nch l=LD w=w1mn m=140
MM97<0> In_5m CALIN5[0] net0228 AVSS nch l=LD w=w1mn m=100
MM30<0> net062 net0159 net069 AVSS nch l=LA w=w3 m=140
MM23<5> net0145[0] net0159 AVSS AVSS nch l=LA w=w4 m=20
MM23<4> net0145[1] net0159 AVSS AVSS nch l=LA w=w4 m=20
MM23<3> net0145[2] net0159 AVSS AVSS nch l=LA w=w4 m=20
MM96<2> In_5m CALIN5[1] net0200[0] AVSS nch l=LD w=w1mn m=100
MM96<1> In_5m CALIN5[1] net0200[1] AVSS nch l=LD w=w1mn m=100
MM93<9> In_3m CALIN3[3] net0178[0] AVSS nch l=LD w=w1mn m=60
MM93<8> In_3m CALIN3[3] net0178[1] AVSS nch l=LD w=w1mn m=60
MM93<7> In_3m CALIN3[3] net0178[2] AVSS nch l=LD w=w1mn m=60
MM93<6> In_3m CALIN3[3] net0178[3] AVSS nch l=LD w=w1mn m=60
MM94<9> In_5m CALIN5[3] net0192[0] AVSS nch l=LD w=w1mn m=100
MM94<8> In_5m CALIN5[3] net0192[1] AVSS nch l=LD w=w1mn m=100
MM94<7> In_5m CALIN5[3] net0192[2] AVSS nch l=LD w=w1mn m=100
MM94<6> In_5m CALIN5[3] net0192[3] AVSS nch l=LD w=w1mn m=100
MM25<5> net0165[0] net0159 AVSS AVSS nch l=LA w=w4 m=60
MM25<4> net0165[1] net0159 AVSS AVSS nch l=LA w=w4 m=60
MM25<3> net0165[2] net0159 AVSS AVSS nch l=LA w=w4 m=60
MM74<9> In_1m CALIN1[3] net0157[0] AVSS nch l=LD w=w1mn m=20
MM74<8> In_1m CALIN1[3] net0157[1] AVSS nch l=LD w=w1mn m=20
MM74<7> In_1m CALIN1[3] net0157[2] AVSS nch l=LD w=w1mn m=20
MM74<6> In_1m CALIN1[3] net0157[3] AVSS nch l=LD w=w1mn m=20
MM90<0> In_3m CALIN3[0] net078 AVSS nch l=LD w=w1mn m=60
MM30<19> In_7m net0159 net0182[0] AVSS nch l=LA w=w3 m=140
MM30<18> In_7m net0159 net0182[1] AVSS nch l=LA w=w3 m=140
MM30<17> In_7m net0159 net0182[2] AVSS nch l=LA w=w3 m=140
MM30<16> In_7m net0159 net0182[3] AVSS nch l=LA w=w3 m=140
MM30<15> In_7m net0159 net0182[4] AVSS nch l=LA w=w3 m=140
MM30<14> In_7m net0159 net0182[5] AVSS nch l=LA w=w3 m=140
MM30<13> In_7m net0159 net0182[6] AVSS nch l=LA w=w3 m=140
MM30<12> In_7m net0159 net0182[7] AVSS nch l=LA w=w3 m=140
MM30<11> In_7m net0159 net0182[8] AVSS nch l=LA w=w3 m=140
MM30<10> In_7m net0159 net0182[9] AVSS nch l=LA w=w3 m=140
MM91<2> In_3m CALIN3[1] net0186[0] AVSS nch l=LD w=w1mn m=60
MM91<1> In_3m CALIN3[1] net0186[1] AVSS nch l=LD w=w1mn m=60
MM30<5> net0210[0] net0159 net0187[0] AVSS nch l=LA w=w3 m=140
MM30<4> net0210[1] net0159 net0187[1] AVSS nch l=LA w=w3 m=140
MM30<3> net0210[2] net0159 net0187[2] AVSS nch l=LA w=w3 m=140
MM28<19> In_5m net0159 net0171[0] AVSS nch l=LA w=w3 m=100
MM28<18> In_5m net0159 net0171[1] AVSS nch l=LA w=w3 m=100
MM28<17> In_5m net0159 net0171[2] AVSS nch l=LA w=w3 m=100
MM28<16> In_5m net0159 net0171[3] AVSS nch l=LA w=w3 m=100
MM28<15> In_5m net0159 net0171[4] AVSS nch l=LA w=w3 m=100
MM28<14> In_5m net0159 net0171[5] AVSS nch l=LA w=w3 m=100
MM28<13> In_5m net0159 net0171[6] AVSS nch l=LA w=w3 m=100
MM28<12> In_5m net0159 net0171[7] AVSS nch l=LA w=w3 m=100
MM28<11> In_5m net0159 net0171[8] AVSS nch l=LA w=w3 m=100
MM28<10> In_5m net0159 net0171[9] AVSS nch l=LA w=w3 m=100
MM28<5> net0196[0] net0159 net0176[0] AVSS nch l=LA w=w3 m=100
MM28<4> net0196[1] net0159 net0176[1] AVSS nch l=LA w=w3 m=100
MM28<3> net0196[2] net0159 net0176[2] AVSS nch l=LA w=w3 m=100
MM26<19> In_3m net0159 net0160[0] AVSS nch l=LA w=w3 m=60
MM26<18> In_3m net0159 net0160[1] AVSS nch l=LA w=w3 m=60
MM26<17> In_3m net0159 net0160[2] AVSS nch l=LA w=w3 m=60
MM26<16> In_3m net0159 net0160[3] AVSS nch l=LA w=w3 m=60
MM26<15> In_3m net0159 net0160[4] AVSS nch l=LA w=w3 m=60
MM26<14> In_3m net0159 net0160[5] AVSS nch l=LA w=w3 m=60
MM26<13> In_3m net0159 net0160[6] AVSS nch l=LA w=w3 m=60
MM26<12> In_3m net0159 net0160[7] AVSS nch l=LA w=w3 m=60
MM26<11> In_3m net0159 net0160[8] AVSS nch l=LA w=w3 m=60
MM26<10> In_3m net0159 net0160[9] AVSS nch l=LA w=w3 m=60
MM92<5> In_3m CALIN3[2] net0220[0] AVSS nch l=LD w=w1mn m=60
MM92<4> In_3m CALIN3[2] net0220[1] AVSS nch l=LD w=w1mn m=60
MM92<3> In_3m CALIN3[2] net0220[2] AVSS nch l=LD w=w1mn m=60
MM29<0> net069 net0159 AVSS AVSS nch l=LA w=w4 m=140
MM23<2> net0154[0] net0159 AVSS AVSS nch l=LA w=w4 m=20
MM23<1> net0154[1] net0159 AVSS AVSS nch l=LA w=w4 m=20
MM30<2> net0214[0] net0159 net0190[0] AVSS nch l=LA w=w3 m=140
MM30<1> net0214[1] net0159 net0190[1] AVSS nch l=LA w=w3 m=140
MM27<2> net0179[0] net0159 AVSS AVSS nch l=LA w=w4 m=100
MM27<1> net0179[1] net0159 AVSS AVSS nch l=LA w=w4 m=100
MM101<9> In_7m CALIN7[3] net0206[0] AVSS nch l=LD w=w1mn m=140
MM101<8> In_7m CALIN7[3] net0206[1] AVSS nch l=LD w=w1mn m=140
MM101<7> In_7m CALIN7[3] net0206[2] AVSS nch l=LD w=w1mn m=140
MM101<6> In_7m CALIN7[3] net0206[3] AVSS nch l=LD w=w1mn m=140
MM26<2> net0186[0] net0159 net0168[0] AVSS nch l=LA w=w3 m=60
MM26<1> net0186[1] net0159 net0168[1] AVSS nch l=LA w=w3 m=60
MM27<5> net0176[0] net0159 AVSS AVSS nch l=LA w=w4 m=100
MM27<4> net0176[1] net0159 AVSS AVSS nch l=LA w=w4 m=100
MM27<3> net0176[2] net0159 AVSS AVSS nch l=LA w=w4 m=100
MM26<0> net078 net0159 net077 AVSS nch l=LA w=w3 m=60
MM24<0> net0222 net0159 net081 AVSS nch l=LA w=w3 m=20
MM102<5> In_1m CALIN1[2] net0227[0] AVSS nch l=LD w=w1mn m=20
MM102<4> In_1m CALIN1[2] net0227[1] AVSS nch l=LD w=w1mn m=20
MM102<3> In_1m CALIN1[2] net0227[2] AVSS nch l=LD w=w1mn m=20
MM25<2> net0168[0] net0159 AVSS AVSS nch l=LA w=w4 m=60
MM25<1> net0168[1] net0159 AVSS AVSS nch l=LA w=w4 m=60
MM104<0> In_1m CALIN1[0] net0222 AVSS nch l=LD w=w1mn m=20
MM29<2> net0190[0] net0159 AVSS AVSS nch l=LA w=w4 m=140
MM29<1> net0190[1] net0159 AVSS AVSS nch l=LA w=w4 m=140
MM103<2> In_1m CALIN1[1] net0232[0] AVSS nch l=LD w=w1mn m=20
MM103<1> In_1m CALIN1[1] net0232[1] AVSS nch l=LD w=w1mn m=20
MM30<9> net0206[0] net0159 net0184[0] AVSS nch l=LA w=w3 m=140
MM30<8> net0206[1] net0159 net0184[1] AVSS nch l=LA w=w3 m=140
MM30<7> net0206[2] net0159 net0184[2] AVSS nch l=LA w=w3 m=140
MM30<6> net0206[3] net0159 net0184[3] AVSS nch l=LA w=w3 m=140
MM28<9> net0192[0] net0159 net0173[0] AVSS nch l=LA w=w3 m=100
MM28<8> net0192[1] net0159 net0173[1] AVSS nch l=LA w=w3 m=100
MM28<7> net0192[2] net0159 net0173[2] AVSS nch l=LA w=w3 m=100
MM28<6> net0192[3] net0159 net0173[3] AVSS nch l=LA w=w3 m=100
MM29<19> net0182[0] net0159 AVSS AVSS nch l=LA w=w4 m=140
MM29<18> net0182[1] net0159 AVSS AVSS nch l=LA w=w4 m=140
MM29<17> net0182[2] net0159 AVSS AVSS nch l=LA w=w4 m=140
MM29<16> net0182[3] net0159 AVSS AVSS nch l=LA w=w4 m=140
MM29<15> net0182[4] net0159 AVSS AVSS nch l=LA w=w4 m=140
MM29<14> net0182[5] net0159 AVSS AVSS nch l=LA w=w4 m=140
MM29<13> net0182[6] net0159 AVSS AVSS nch l=LA w=w4 m=140
MM29<12> net0182[7] net0159 AVSS AVSS nch l=LA w=w4 m=140
MM29<11> net0182[8] net0159 AVSS AVSS nch l=LA w=w4 m=140
MM29<10> net0182[9] net0159 AVSS AVSS nch l=LA w=w4 m=140
MM26<9> net0178[0] net0159 net0162[0] AVSS nch l=LA w=w3 m=60
MM26<8> net0178[1] net0159 net0162[1] AVSS nch l=LA w=w3 m=60
MM26<7> net0178[2] net0159 net0162[2] AVSS nch l=LA w=w3 m=60
MM26<6> net0178[3] net0159 net0162[3] AVSS nch l=LA w=w3 m=60
MM27<19> net0171[0] net0159 AVSS AVSS nch l=LA w=w4 m=100
MM27<18> net0171[1] net0159 AVSS AVSS nch l=LA w=w4 m=100
MM27<17> net0171[2] net0159 AVSS AVSS nch l=LA w=w4 m=100
MM27<16> net0171[3] net0159 AVSS AVSS nch l=LA w=w4 m=100
MM27<15> net0171[4] net0159 AVSS AVSS nch l=LA w=w4 m=100
MM27<14> net0171[5] net0159 AVSS AVSS nch l=LA w=w4 m=100
MM27<13> net0171[6] net0159 AVSS AVSS nch l=LA w=w4 m=100
MM27<12> net0171[7] net0159 AVSS AVSS nch l=LA w=w4 m=100
MM27<11> net0171[8] net0159 AVSS AVSS nch l=LA w=w4 m=100
MM27<10> net0171[9] net0159 AVSS AVSS nch l=LA w=w4 m=100
MM24<9> net0157[0] net0159 net0140[0] AVSS nch l=LA w=w3 m=20
MM24<8> net0157[1] net0159 net0140[1] AVSS nch l=LA w=w3 m=20
MM24<7> net0157[2] net0159 net0140[2] AVSS nch l=LA w=w3 m=20
MM24<6> net0157[3] net0159 net0140[3] AVSS nch l=LA w=w3 m=20
MM25<19> net0160[0] net0159 AVSS AVSS nch l=LA w=w4 m=60
MM25<18> net0160[1] net0159 AVSS AVSS nch l=LA w=w4 m=60
MM25<17> net0160[2] net0159 AVSS AVSS nch l=LA w=w4 m=60
MM25<16> net0160[3] net0159 AVSS AVSS nch l=LA w=w4 m=60
MM25<15> net0160[4] net0159 AVSS AVSS nch l=LA w=w4 m=60
MM25<14> net0160[5] net0159 AVSS AVSS nch l=LA w=w4 m=60
MM25<13> net0160[6] net0159 AVSS AVSS nch l=LA w=w4 m=60
MM25<12> net0160[7] net0159 AVSS AVSS nch l=LA w=w4 m=60
MM25<11> net0160[8] net0159 AVSS AVSS nch l=LA w=w4 m=60
MM25<10> net0160[9] net0159 AVSS AVSS nch l=LA w=w4 m=60
MM13<19> net0159 net0159 net067[0] AVSS nch l=LA w=w3 m=1
MM13<18> net0159 net0159 net067[1] AVSS nch l=LA w=w3 m=1
MM13<17> net0159 net0159 net067[2] AVSS nch l=LA w=w3 m=1
MM13<16> net0159 net0159 net067[3] AVSS nch l=LA w=w3 m=1
MM13<15> net0159 net0159 net067[4] AVSS nch l=LA w=w3 m=1
MM13<14> net0159 net0159 net067[5] AVSS nch l=LA w=w3 m=1
MM13<13> net0159 net0159 net067[6] AVSS nch l=LA w=w3 m=1
MM13<12> net0159 net0159 net067[7] AVSS nch l=LA w=w3 m=1
MM13<11> net0159 net0159 net067[8] AVSS nch l=LA w=w3 m=1
MM13<10> net0159 net0159 net067[9] AVSS nch l=LA w=w3 m=1
MM13<9> net0159 net0159 net067[10] AVSS nch l=LA w=w3 m=1
MM13<8> net0159 net0159 net067[11] AVSS nch l=LA w=w3 m=1
MM13<7> net0159 net0159 net067[12] AVSS nch l=LA w=w3 m=1
MM13<6> net0159 net0159 net067[13] AVSS nch l=LA w=w3 m=1
MM13<5> net0159 net0159 net067[14] AVSS nch l=LA w=w3 m=1
MM13<4> net0159 net0159 net067[15] AVSS nch l=LA w=w3 m=1
MM13<3> net0159 net0159 net067[16] AVSS nch l=LA w=w3 m=1
MM13<2> net0159 net0159 net067[17] AVSS nch l=LA w=w3 m=1
MM13<1> net0159 net0159 net067[18] AVSS nch l=LA w=w3 m=1
MM13<0> net0159 net0159 net067[19] AVSS nch l=LA w=w3 m=1
MM23<19> net0136[0] net0159 AVSS AVSS nch l=LA w=w4 m=20
MM23<18> net0136[1] net0159 AVSS AVSS nch l=LA w=w4 m=20
MM23<17> net0136[2] net0159 AVSS AVSS nch l=LA w=w4 m=20
MM23<16> net0136[3] net0159 AVSS AVSS nch l=LA w=w4 m=20
MM23<15> net0136[4] net0159 AVSS AVSS nch l=LA w=w4 m=20
MM23<14> net0136[5] net0159 AVSS AVSS nch l=LA w=w4 m=20
MM23<13> net0136[6] net0159 AVSS AVSS nch l=LA w=w4 m=20
MM23<12> net0136[7] net0159 AVSS AVSS nch l=LA w=w4 m=20
MM23<11> net0136[8] net0159 AVSS AVSS nch l=LA w=w4 m=20
MM23<10> net0136[9] net0159 AVSS AVSS nch l=LA w=w4 m=20
MM14<19> net067[0] net0159 AVSS AVSS nch l=LA w=w4 m=1
MM14<18> net067[1] net0159 AVSS AVSS nch l=LA w=w4 m=1
MM14<17> net067[2] net0159 AVSS AVSS nch l=LA w=w4 m=1
MM14<16> net067[3] net0159 AVSS AVSS nch l=LA w=w4 m=1
MM14<15> net067[4] net0159 AVSS AVSS nch l=LA w=w4 m=1
MM14<14> net067[5] net0159 AVSS AVSS nch l=LA w=w4 m=1
MM14<13> net067[6] net0159 AVSS AVSS nch l=LA w=w4 m=1
MM14<12> net067[7] net0159 AVSS AVSS nch l=LA w=w4 m=1
MM14<11> net067[8] net0159 AVSS AVSS nch l=LA w=w4 m=1
MM14<10> net067[9] net0159 AVSS AVSS nch l=LA w=w4 m=1
MM14<9> net067[10] net0159 AVSS AVSS nch l=LA w=w4 m=1
MM14<8> net067[11] net0159 AVSS AVSS nch l=LA w=w4 m=1
MM14<7> net067[12] net0159 AVSS AVSS nch l=LA w=w4 m=1
MM14<6> net067[13] net0159 AVSS AVSS nch l=LA w=w4 m=1
MM14<5> net067[14] net0159 AVSS AVSS nch l=LA w=w4 m=1
MM14<4> net067[15] net0159 AVSS AVSS nch l=LA w=w4 m=1
MM14<3> net067[16] net0159 AVSS AVSS nch l=LA w=w4 m=1
MM14<2> net067[17] net0159 AVSS AVSS nch l=LA w=w4 m=1
MM14<1> net067[18] net0159 AVSS AVSS nch l=LA w=w4 m=1
MM14<0> net067[19] net0159 AVSS AVSS nch l=LA w=w4 m=1
MM4 net011 Ibg AVSS AVSS nch l=LE w=w m=1
MM3 Ibg Ibg AVSS AVSS nch l=LE w=w m=1
MM33<9> net0163[0] net011 net089[0] AVDD pch l=LA w=w2p m=60
MM33<8> net0163[1] net011 net089[1] AVDD pch l=LA w=w2p m=60
MM33<7> net0163[2] net011 net089[2] AVDD pch l=LA w=w2p m=60
MM33<6> net0163[3] net011 net089[3] AVDD pch l=LA w=w2p m=60
MM82<2> Ip_5m CALIP5[1] net0180[0] AVDD pch l=LB w=w1m m=100
MM82<1> Ip_5m CALIP5[1] net0180[1] AVDD pch l=LB w=w1m m=100
MM31<0> net0107 net011 AVDD AVDD pch l=LA w=w3p m=20
MM33<2> net0169[0] net011 net091[0] AVDD pch l=LA w=w2p m=60
MM33<1> net0169[1] net011 net091[1] AVDD pch l=LA w=w2p m=60
MM86<5> Ip_7m CALIP7[2] net0188[0] AVDD pch l=LB w=w1m m=140
MM86<4> Ip_7m CALIP7[2] net0188[1] AVDD pch l=LB w=w1m m=140
MM86<3> Ip_7m CALIP7[2] net0188[2] AVDD pch l=LB w=w1m m=140
MM85<2> Ip_7m CALIP7[1] net0191[0] AVDD pch l=LB w=w1m m=140
MM85<1> Ip_7m CALIP7[1] net0191[1] AVDD pch l=LB w=w1m m=140
MM84<0> Ip_7m CALIP7[0] net057 AVDD pch l=LB w=w1m m=140
MM83<0> Ip_5m CALIP5[0] net0195 AVDD pch l=LB w=w1m m=100
MM38<0> net041 net011 AVDD AVDD pch l=LA w=w3p m=140
MM31<5> net085[0] net011 AVDD AVDD pch l=LA w=w3p m=20
MM31<4> net085[1] net011 AVDD AVDD pch l=LA w=w3p m=20
MM31<3> net085[2] net011 AVDD AVDD pch l=LA w=w3p m=20
MM37<2> net0191[0] net011 net0101[0] AVDD pch l=LA w=w2p m=140
MM37<1> net0191[1] net011 net0101[1] AVDD pch l=LA w=w2p m=140
MM36<5> net0177[0] net011 net096[0] AVDD pch l=LA w=w2p m=100
MM36<4> net0177[1] net011 net096[1] AVDD pch l=LA w=w2p m=100
MM36<3> net0177[2] net011 net096[2] AVDD pch l=LA w=w2p m=100
MM87<9> Ip_7m CALIP7[3] net0185[0] AVDD pch l=LB w=w1m m=140
MM87<8> Ip_7m CALIP7[3] net0185[1] AVDD pch l=LB w=w1m m=140
MM87<7> Ip_7m CALIP7[3] net0185[2] AVDD pch l=LB w=w1m m=140
MM87<6> Ip_7m CALIP7[3] net0185[3] AVDD pch l=LB w=w1m m=140
MM32<2> net0113[0] net011 net086[0] AVDD pch l=LA w=w2p m=20
MM32<1> net0113[1] net011 net086[1] AVDD pch l=LA w=w2p m=20
MM81<5> Ip_5m CALIP5[2] net0177[0] AVDD pch l=LB w=w1m m=100
MM81<4> Ip_5m CALIP5[2] net0177[1] AVDD pch l=LB w=w1m m=100
MM81<3> Ip_5m CALIP5[2] net0177[2] AVDD pch l=LB w=w1m m=100
MM80<9> Ip_5m CALIP5[3] net0174[0] AVDD pch l=LB w=w1m m=100
MM80<8> Ip_5m CALIP5[3] net0174[1] AVDD pch l=LB w=w1m m=100
MM80<7> Ip_5m CALIP5[3] net0174[2] AVDD pch l=LB w=w1m m=100
MM80<6> Ip_5m CALIP5[3] net0174[3] AVDD pch l=LB w=w1m m=100
MM79<9> Ip_3m CALIP3[3] net0163[0] AVDD pch l=LB w=w1m m=60
MM79<8> Ip_3m CALIP3[3] net0163[1] AVDD pch l=LB w=w1m m=60
MM79<7> Ip_3m CALIP3[3] net0163[2] AVDD pch l=LB w=w1m m=60
MM79<6> Ip_3m CALIP3[3] net0163[3] AVDD pch l=LB w=w1m m=60
MM36<9> net0174[0] net011 net095[0] AVDD pch l=LA w=w2p m=100
MM36<8> net0174[1] net011 net095[1] AVDD pch l=LA w=w2p m=100
MM36<7> net0174[2] net011 net095[2] AVDD pch l=LA w=w2p m=100
MM36<6> net0174[3] net011 net095[3] AVDD pch l=LA w=w2p m=100
MM78<5> Ip_3m CALIP3[2] net0166[0] AVDD pch l=LB w=w1m m=60
MM78<4> Ip_3m CALIP3[2] net0166[1] AVDD pch l=LB w=w1m m=60
MM78<3> Ip_3m CALIP3[2] net0166[2] AVDD pch l=LB w=w1m m=60
MM37<0> net057 net011 net041 AVDD pch l=LA w=w2p m=140
MM32<0> net0117 net011 net0107 AVDD pch l=LA w=w2p m=20
MM35<5> net096[0] net011 AVDD AVDD pch l=LA w=w3p m=100
MM35<4> net096[1] net011 AVDD AVDD pch l=LA w=w3p m=100
MM35<3> net096[2] net011 AVDD AVDD pch l=LA w=w3p m=100
MM33<0> net033 net011 net0105 AVDD pch l=LA w=w2p m=60
MM31<2> net086[0] net011 AVDD AVDD pch l=LA w=w3p m=20
MM31<1> net086[1] net011 AVDD AVDD pch l=LA w=w3p m=20
MM36<2> net0180[0] net011 net097[0] AVDD pch l=LA w=w2p m=100
MM36<1> net0180[1] net011 net097[1] AVDD pch l=LA w=w2p m=100
MM34<2> net091[0] net011 AVDD AVDD pch l=LA w=w3p m=60
MM34<1> net091[1] net011 AVDD AVDD pch l=LA w=w3p m=60
MM31<9> net084[0] net011 AVDD AVDD pch l=LA w=w3p m=20
MM31<8> net084[1] net011 AVDD AVDD pch l=LA w=w3p m=20
MM31<7> net084[2] net011 AVDD AVDD pch l=LA w=w3p m=20
MM31<6> net084[3] net011 AVDD AVDD pch l=LA w=w3p m=20
MM35<2> net097[0] net011 AVDD AVDD pch l=LA w=w3p m=100
MM35<1> net097[1] net011 AVDD AVDD pch l=LA w=w3p m=100
MM34<0> net0105 net011 AVDD AVDD pch l=LA w=w3p m=60
MM38<2> net0101[0] net011 AVDD AVDD pch l=LA w=w3p m=140
MM38<1> net0101[1] net011 AVDD AVDD pch l=LA w=w3p m=140
MM32<5> net0125[0] net011 net085[0] AVDD pch l=LA w=w2p m=20
MM32<4> net0125[1] net011 net085[1] AVDD pch l=LA w=w2p m=20
MM32<3> net0125[2] net011 net085[2] AVDD pch l=LA w=w2p m=20
MM37<5> net0188[0] net011 net0100[0] AVDD pch l=LA w=w2p m=140
MM37<4> net0188[1] net011 net0100[1] AVDD pch l=LA w=w2p m=140
MM37<3> net0188[2] net011 net0100[2] AVDD pch l=LA w=w2p m=140
MM35<0> net0106 net011 AVDD AVDD pch l=LA w=w3p m=100
MM33<5> net0166[0] net011 net090[0] AVDD pch l=LA w=w2p m=60
MM33<4> net0166[1] net011 net090[1] AVDD pch l=LA w=w2p m=60
MM33<3> net0166[2] net011 net090[2] AVDD pch l=LA w=w2p m=60
MM32<9> net0124[0] net011 net084[0] AVDD pch l=LA w=w2p m=20
MM32<8> net0124[1] net011 net084[1] AVDD pch l=LA w=w2p m=20
MM32<7> net0124[2] net011 net084[2] AVDD pch l=LA w=w2p m=20
MM32<6> net0124[3] net011 net084[3] AVDD pch l=LA w=w2p m=20
MM35<19> net093[0] net011 AVDD AVDD pch l=LA w=w3p m=100
MM35<18> net093[1] net011 AVDD AVDD pch l=LA w=w3p m=100
MM35<17> net093[2] net011 AVDD AVDD pch l=LA w=w3p m=100
MM35<16> net093[3] net011 AVDD AVDD pch l=LA w=w3p m=100
MM35<15> net093[4] net011 AVDD AVDD pch l=LA w=w3p m=100
MM35<14> net093[5] net011 AVDD AVDD pch l=LA w=w3p m=100
MM35<13> net093[6] net011 AVDD AVDD pch l=LA w=w3p m=100
MM35<12> net093[7] net011 AVDD AVDD pch l=LA w=w3p m=100
MM35<11> net093[8] net011 AVDD AVDD pch l=LA w=w3p m=100
MM35<10> net093[9] net011 AVDD AVDD pch l=LA w=w3p m=100
MM31<19> net083[0] net011 AVDD AVDD pch l=LA w=w3p m=20
MM31<18> net083[1] net011 AVDD AVDD pch l=LA w=w3p m=20
MM31<17> net083[2] net011 AVDD AVDD pch l=LA w=w3p m=20
MM31<16> net083[3] net011 AVDD AVDD pch l=LA w=w3p m=20
MM31<15> net083[4] net011 AVDD AVDD pch l=LA w=w3p m=20
MM31<14> net083[5] net011 AVDD AVDD pch l=LA w=w3p m=20
MM31<13> net083[6] net011 AVDD AVDD pch l=LA w=w3p m=20
MM31<12> net083[7] net011 AVDD AVDD pch l=LA w=w3p m=20
MM31<11> net083[8] net011 AVDD AVDD pch l=LA w=w3p m=20
MM31<10> net083[9] net011 AVDD AVDD pch l=LA w=w3p m=20
MM72<9> Ip_1m CALIP1[3] net0124[0] AVDD pch l=LB w=w1m m=20
MM72<8> Ip_1m CALIP1[3] net0124[1] AVDD pch l=LB w=w1m m=20
MM72<7> Ip_1m CALIP1[3] net0124[2] AVDD pch l=LB w=w1m m=20
MM72<6> Ip_1m CALIP1[3] net0124[3] AVDD pch l=LB w=w1m m=20
MM76<0> Ip_3m CALIP3[0] net033 AVDD pch l=LB w=w1m m=60
MM72<0> Ip_1m CALIP1[0] net0117 AVDD pch l=LB w=w1m m=20
MM72<2> Ip_1m CALIP1[1] net0113[0] AVDD pch l=LB w=w1m m=20
MM72<1> Ip_1m CALIP1[1] net0113[1] AVDD pch l=LB w=w1m m=20
MM72<5> Ip_1m CALIP1[2] net0125[0] AVDD pch l=LB w=w1m m=20
MM72<4> Ip_1m CALIP1[2] net0125[1] AVDD pch l=LB w=w1m m=20
MM72<3> Ip_1m CALIP1[2] net0125[2] AVDD pch l=LB w=w1m m=20
MM38<19> net098[0] net011 AVDD AVDD pch l=LA w=w3p m=140
MM38<18> net098[1] net011 AVDD AVDD pch l=LA w=w3p m=140
MM38<17> net098[2] net011 AVDD AVDD pch l=LA w=w3p m=140
MM38<16> net098[3] net011 AVDD AVDD pch l=LA w=w3p m=140
MM38<15> net098[4] net011 AVDD AVDD pch l=LA w=w3p m=140
MM38<14> net098[5] net011 AVDD AVDD pch l=LA w=w3p m=140
MM38<13> net098[6] net011 AVDD AVDD pch l=LA w=w3p m=140
MM38<12> net098[7] net011 AVDD AVDD pch l=LA w=w3p m=140
MM38<11> net098[8] net011 AVDD AVDD pch l=LA w=w3p m=140
MM38<10> net098[9] net011 AVDD AVDD pch l=LA w=w3p m=140
MM77<2> Ip_3m CALIP3[1] net0169[0] AVDD pch l=LB w=w1m m=60
MM77<1> Ip_3m CALIP3[1] net0169[1] AVDD pch l=LB w=w1m m=60
MM37<9> net0185[0] net011 net099[0] AVDD pch l=LA w=w2p m=140
MM37<8> net0185[1] net011 net099[1] AVDD pch l=LA w=w2p m=140
MM37<7> net0185[2] net011 net099[2] AVDD pch l=LA w=w2p m=140
MM37<6> net0185[3] net011 net099[3] AVDD pch l=LA w=w2p m=140
MM36<0> net0195 net011 net0106 AVDD pch l=LA w=w2p m=100
MM38<5> net0100[0] net011 AVDD AVDD pch l=LA w=w3p m=140
MM38<4> net0100[1] net011 AVDD AVDD pch l=LA w=w3p m=140
MM38<3> net0100[2] net011 AVDD AVDD pch l=LA w=w3p m=140
MM34<19> net088[0] net011 AVDD AVDD pch l=LA w=w3p m=60
MM34<18> net088[1] net011 AVDD AVDD pch l=LA w=w3p m=60
MM34<17> net088[2] net011 AVDD AVDD pch l=LA w=w3p m=60
MM34<16> net088[3] net011 AVDD AVDD pch l=LA w=w3p m=60
MM34<15> net088[4] net011 AVDD AVDD pch l=LA w=w3p m=60
MM34<14> net088[5] net011 AVDD AVDD pch l=LA w=w3p m=60
MM34<13> net088[6] net011 AVDD AVDD pch l=LA w=w3p m=60
MM34<12> net088[7] net011 AVDD AVDD pch l=LA w=w3p m=60
MM34<11> net088[8] net011 AVDD AVDD pch l=LA w=w3p m=60
MM34<10> net088[9] net011 AVDD AVDD pch l=LA w=w3p m=60
MM38<9> net099[0] net011 AVDD AVDD pch l=LA w=w3p m=140
MM38<8> net099[1] net011 AVDD AVDD pch l=LA w=w3p m=140
MM38<7> net099[2] net011 AVDD AVDD pch l=LA w=w3p m=140
MM38<6> net099[3] net011 AVDD AVDD pch l=LA w=w3p m=140
MM37<19> Ip_7m net011 net098[0] AVDD pch l=LA w=w2p m=140
MM37<18> Ip_7m net011 net098[1] AVDD pch l=LA w=w2p m=140
MM37<17> Ip_7m net011 net098[2] AVDD pch l=LA w=w2p m=140
MM37<16> Ip_7m net011 net098[3] AVDD pch l=LA w=w2p m=140
MM37<15> Ip_7m net011 net098[4] AVDD pch l=LA w=w2p m=140
MM37<14> Ip_7m net011 net098[5] AVDD pch l=LA w=w2p m=140
MM37<13> Ip_7m net011 net098[6] AVDD pch l=LA w=w2p m=140
MM37<12> Ip_7m net011 net098[7] AVDD pch l=LA w=w2p m=140
MM37<11> Ip_7m net011 net098[8] AVDD pch l=LA w=w2p m=140
MM37<10> Ip_7m net011 net098[9] AVDD pch l=LA w=w2p m=140
MM35<9> net095[0] net011 AVDD AVDD pch l=LA w=w3p m=100
MM35<8> net095[1] net011 AVDD AVDD pch l=LA w=w3p m=100
MM35<7> net095[2] net011 AVDD AVDD pch l=LA w=w3p m=100
MM35<6> net095[3] net011 AVDD AVDD pch l=LA w=w3p m=100
MM34<9> net089[0] net011 AVDD AVDD pch l=LA w=w3p m=60
MM34<8> net089[1] net011 AVDD AVDD pch l=LA w=w3p m=60
MM34<7> net089[2] net011 AVDD AVDD pch l=LA w=w3p m=60
MM34<6> net089[3] net011 AVDD AVDD pch l=LA w=w3p m=60
MM36<19> Ip_5m net011 net093[0] AVDD pch l=LA w=w2p m=100
MM36<18> Ip_5m net011 net093[1] AVDD pch l=LA w=w2p m=100
MM36<17> Ip_5m net011 net093[2] AVDD pch l=LA w=w2p m=100
MM36<16> Ip_5m net011 net093[3] AVDD pch l=LA w=w2p m=100
MM36<15> Ip_5m net011 net093[4] AVDD pch l=LA w=w2p m=100
MM36<14> Ip_5m net011 net093[5] AVDD pch l=LA w=w2p m=100
MM36<13> Ip_5m net011 net093[6] AVDD pch l=LA w=w2p m=100
MM36<12> Ip_5m net011 net093[7] AVDD pch l=LA w=w2p m=100
MM36<11> Ip_5m net011 net093[8] AVDD pch l=LA w=w2p m=100
MM36<10> Ip_5m net011 net093[9] AVDD pch l=LA w=w2p m=100
MM33<19> Ip_3m net011 net088[0] AVDD pch l=LA w=w2p m=60
MM33<18> Ip_3m net011 net088[1] AVDD pch l=LA w=w2p m=60
MM33<17> Ip_3m net011 net088[2] AVDD pch l=LA w=w2p m=60
MM33<16> Ip_3m net011 net088[3] AVDD pch l=LA w=w2p m=60
MM33<15> Ip_3m net011 net088[4] AVDD pch l=LA w=w2p m=60
MM33<14> Ip_3m net011 net088[5] AVDD pch l=LA w=w2p m=60
MM33<13> Ip_3m net011 net088[6] AVDD pch l=LA w=w2p m=60
MM33<12> Ip_3m net011 net088[7] AVDD pch l=LA w=w2p m=60
MM33<11> Ip_3m net011 net088[8] AVDD pch l=LA w=w2p m=60
MM33<10> Ip_3m net011 net088[9] AVDD pch l=LA w=w2p m=60
MM34<5> net090[0] net011 AVDD AVDD pch l=LA w=w3p m=60
MM34<4> net090[1] net011 AVDD AVDD pch l=LA w=w3p m=60
MM34<3> net090[2] net011 AVDD AVDD pch l=LA w=w3p m=60
MM32<19> Ip_1m net011 net083[0] AVDD pch l=LA w=w2p m=20
MM32<18> Ip_1m net011 net083[1] AVDD pch l=LA w=w2p m=20
MM32<17> Ip_1m net011 net083[2] AVDD pch l=LA w=w2p m=20
MM32<16> Ip_1m net011 net083[3] AVDD pch l=LA w=w2p m=20
MM32<15> Ip_1m net011 net083[4] AVDD pch l=LA w=w2p m=20
MM32<14> Ip_1m net011 net083[5] AVDD pch l=LA w=w2p m=20
MM32<13> Ip_1m net011 net083[6] AVDD pch l=LA w=w2p m=20
MM32<12> Ip_1m net011 net083[7] AVDD pch l=LA w=w2p m=20
MM32<11> Ip_1m net011 net083[8] AVDD pch l=LA w=w2p m=20
MM32<10> Ip_1m net011 net083[9] AVDD pch l=LA w=w2p m=20
MM10<19> net0159 net011 net046[0] AVDD pch l=LA w=w2p m=1
MM10<18> net0159 net011 net046[1] AVDD pch l=LA w=w2p m=1
MM10<17> net0159 net011 net046[2] AVDD pch l=LA w=w2p m=1
MM10<16> net0159 net011 net046[3] AVDD pch l=LA w=w2p m=1
MM10<15> net0159 net011 net046[4] AVDD pch l=LA w=w2p m=1
MM10<14> net0159 net011 net046[5] AVDD pch l=LA w=w2p m=1
MM10<13> net0159 net011 net046[6] AVDD pch l=LA w=w2p m=1
MM10<12> net0159 net011 net046[7] AVDD pch l=LA w=w2p m=1
MM10<11> net0159 net011 net046[8] AVDD pch l=LA w=w2p m=1
MM10<10> net0159 net011 net046[9] AVDD pch l=LA w=w2p m=1
MM10<9> net0159 net011 net046[10] AVDD pch l=LA w=w2p m=1
MM10<8> net0159 net011 net046[11] AVDD pch l=LA w=w2p m=1
MM10<7> net0159 net011 net046[12] AVDD pch l=LA w=w2p m=1
MM10<6> net0159 net011 net046[13] AVDD pch l=LA w=w2p m=1
MM10<5> net0159 net011 net046[14] AVDD pch l=LA w=w2p m=1
MM10<4> net0159 net011 net046[15] AVDD pch l=LA w=w2p m=1
MM10<3> net0159 net011 net046[16] AVDD pch l=LA w=w2p m=1
MM10<2> net0159 net011 net046[17] AVDD pch l=LA w=w2p m=1
MM10<1> net0159 net011 net046[18] AVDD pch l=LA w=w2p m=1
MM10<0> net0159 net011 net046[19] AVDD pch l=LA w=w2p m=1
MM7<19> net011 net011 net045[0] AVDD pch l=LA w=w2p m=1
MM7<18> net011 net011 net045[1] AVDD pch l=LA w=w2p m=1
MM7<17> net011 net011 net045[2] AVDD pch l=LA w=w2p m=1
MM7<16> net011 net011 net045[3] AVDD pch l=LA w=w2p m=1
MM7<15> net011 net011 net045[4] AVDD pch l=LA w=w2p m=1
MM7<14> net011 net011 net045[5] AVDD pch l=LA w=w2p m=1
MM7<13> net011 net011 net045[6] AVDD pch l=LA w=w2p m=1
MM7<12> net011 net011 net045[7] AVDD pch l=LA w=w2p m=1
MM7<11> net011 net011 net045[8] AVDD pch l=LA w=w2p m=1
MM7<10> net011 net011 net045[9] AVDD pch l=LA w=w2p m=1
MM7<9> net011 net011 net045[10] AVDD pch l=LA w=w2p m=1
MM7<8> net011 net011 net045[11] AVDD pch l=LA w=w2p m=1
MM7<7> net011 net011 net045[12] AVDD pch l=LA w=w2p m=1
MM7<6> net011 net011 net045[13] AVDD pch l=LA w=w2p m=1
MM7<5> net011 net011 net045[14] AVDD pch l=LA w=w2p m=1
MM7<4> net011 net011 net045[15] AVDD pch l=LA w=w2p m=1
MM7<3> net011 net011 net045[16] AVDD pch l=LA w=w2p m=1
MM7<2> net011 net011 net045[17] AVDD pch l=LA w=w2p m=1
MM7<1> net011 net011 net045[18] AVDD pch l=LA w=w2p m=1
MM7<0> net011 net011 net045[19] AVDD pch l=LA w=w2p m=1
MM9<19> net046[0] net011 AVDD AVDD pch l=LA w=w3p m=1
MM9<18> net046[1] net011 AVDD AVDD pch l=LA w=w3p m=1
MM9<17> net046[2] net011 AVDD AVDD pch l=LA w=w3p m=1
MM9<16> net046[3] net011 AVDD AVDD pch l=LA w=w3p m=1
MM9<15> net046[4] net011 AVDD AVDD pch l=LA w=w3p m=1
MM9<14> net046[5] net011 AVDD AVDD pch l=LA w=w3p m=1