************************************************************************
* auCdl Netlist:
*
* Library Name:  model3x
* Top Cell Name: MDLL_TOP
* View Name:     schematic
* Netlisted on:  Mar 14 22:33:22 2019
************************************************************************

*.BIPOLAR
*.RESI = 2000
*.RESVAL
*.CAPVAL
*.DIOPERI
*.DIOAREA
*.EQUATION
*.SCALE METER
*.MEGA
.PARAM



************************************************************************
* Library Name: tcbn65lp
* Cell Name:    INVD0
* View Name:    schematic
************************************************************************

.SUBCKT INVD0 I VDD VSS ZN
*.PININFO I:I ZN:O VDD:B VSS:B
MMU1-M_u2 ZN I VSS VSS nch l=LA w=WE m=1
MMU1-M_u3 ZN I VDD VDD pch l=LA w=WQ m=1
.ENDS

************************************************************************
* Library Name: tcbn65lp
* Cell Name:    AN3D2
* View Name:    schematic
************************************************************************

.SUBCKT AN3D2 A1 A2 A3 VDD VSS Z
*.PININFO A1:I A2:I A3:I Z:O VDD:B VSS:B
MM_u3_1-M_u2 Z net5 VSS VSS nch l=LA w=WAC m=1
MM_u4-M_u6 net13 A3 VSS VSS nch l=LA w=WAC m=1
MM_u4-M_u5 net9 A2 net13 VSS nch l=LA w=WAC m=1
MM_u4-M_u4 net5 A1 net9 VSS nch l=LA w=WAC m=1
MM_u3_0-M_u2 Z net5 VSS VSS nch l=LA w=WAC m=1
MM_u4-M_u3 net5 A3 VDD VDD pch l=LA w=WAJ m=1
MM_u3_1-M_u3 Z net5 VDD VDD pch l=LA w=WAJ m=1
MM_u3_0-M_u3 Z net5 VDD VDD pch l=LA w=WAJ m=1
MM_u4-M_u1 net5 A1 VDD VDD pch l=LA w=WAJ m=1
MM_u4-M_u2 net5 A2 VDD VDD pch l=LA w=WAJ m=1
.ENDS

************************************************************************
* Library Name: tcbn65lp
* Cell Name:    INVD1
* View Name:    schematic
************************************************************************

.SUBCKT INVD1 I VDD VSS ZN
*.PININFO I:I ZN:O VDD:B VSS:B
MMU1-M_u2 ZN I VSS VSS nch l=LA w=WAC m=1
MMU1-M_u3 ZN I VDD VDD pch l=LA w=WAJ m=1
.ENDS

************************************************************************
* Library Name: tcbn65lp
* Cell Name:    NR2D0
* View Name:    schematic
************************************************************************

.SUBCKT NR2D0 A1 A2 VDD VSS ZN
*.PININFO A1:I A2:I ZN:O VDD:B VSS:B
MMI1-M_u3 ZN A2 VSS VSS nch l=LA w=WE m=1
MMI1-M_u4 ZN A1 VSS VSS nch l=LA w=WE m=1
MMI1-M_u1 net13 A2 VDD VDD pch l=LA w=WQ m=1
MMI1-M_u2 ZN A1 net13 VDD pch l=LA w=WQ m=1
.ENDS

************************************************************************
* Library Name: tcbn65lp
* Cell Name:    DFND1
* View Name:    schematic
************************************************************************

.SUBCKT DFND1 CPN D Q QN VDD VSS
*.PININFO CPN:I D:I Q:O QN:O VDD:B VSS:B
MMI53-M_u2 net63 net100 VSS VSS nch l=LA w=WAC m=1
MMI29-M_u2 QN net97 VSS VSS nch l=LA w=WAC m=1
MMI4 net24 net67 VSS VSS nch l=LA w=WG m=1
MMI55 net97 net67 net100 VSS nch l=LA w=WA m=1
MMI13-M_u2 net11 net1 VSS VSS nch l=LA w=WF m=1
MMI50 net11 net95 net100 VSS nch l=LA w=WF m=1
MMI32-M_u2 net67 net95 VSS VSS nch l=LA w=WE m=1
MMI5 net1 D net24 VSS nch l=LA w=WG m=1
MMI31-M_u2 net95 CPN VSS VSS nch l=LA w=WE m=1
MMI56-M_u2 net97 net63 VSS VSS nch l=LA w=WE m=1
MMI48 net9 net11 VSS VSS nch l=LA w=WA m=1
MMI27-M_u2 Q net63 VSS VSS nch l=LA w=WAC m=1
MMI47 net1 net95 net9 VSS nch l=LA w=WA m=1
MMI53-M_u3 net63 net100 VDD VDD pch l=LA w=WAI m=1
MMI54 net97 net95 net100 VDD pch l=LA w=WA m=1
MMI32-M_u3 net67 net95 VDD VDD pch l=LA w=WQ m=1
MMI43 net60 net11 VDD VDD pch l=LA w=WA m=1
MMI6 net1 D net53 VDD pch l=LA w=WAF m=1
MMI29-M_u3 QN net97 VDD VDD pch l=LA w=WAJ m=1
MMI31-M_u3 net95 CPN VDD VDD pch l=LA w=WQ m=1
MMI27-M_u3 Q net63 VDD VDD pch l=LA w=WAJ m=1
MMI13-M_u3 net11 net1 VDD VDD pch l=LA w=WR m=1
MMI52 net11 net67 net100 VDD pch l=LA w=WR m=1
MMI56-M_u3 net97 net63 VDD VDD pch l=LA w=WQ m=1
MMI45 net1 net67 net60 VDD pch l=LA w=WA m=1
MMI7 net53 net95 VDD VDD pch l=LA w=WAF m=1
.ENDS

************************************************************************
* Library Name: tcbn65lp
* Cell Name:    INVD8
* View Name:    schematic
************************************************************************

.SUBCKT INVD8 I VDD VSS ZN
*.PININFO I:I ZN:O VDD:B VSS:B
MMU1_5-M_u2 ZN I VSS VSS nch l=LA w=WAC m=1
MMU1_0-M_u2 ZN I VSS VSS nch l=LA w=WAC m=1
MMU1_3-M_u2 ZN I VSS VSS nch l=LA w=WAC m=1
MMU1_7-M_u2 ZN I VSS VSS nch l=LA w=WAC m=1
MMU1_4-M_u2 ZN I VSS VSS nch l=LA w=WAC m=1
MMU1_1-M_u2 ZN I VSS VSS nch l=LA w=WAC m=1
MMU1_6-M_u2 ZN I VSS VSS nch l=LA w=WAC m=1
MMU1_2-M_u2 ZN I VSS VSS nch l=LA w=WAC m=1
MMU1_0-M_u3 ZN I VDD VDD pch l=LA w=WAJ m=1
MMU1_4-M_u3 ZN I VDD VDD pch l=LA w=WAJ m=1
MMU1_5-M_u3 ZN I VDD VDD pch l=LA w=WAJ m=1
MMU1_1-M_u3 ZN I VDD VDD pch l=LA w=WAJ m=1
MMU1_3-M_u3 ZN I VDD VDD pch l=LA w=WAJ m=1
MMU1_7-M_u3 ZN I VDD VDD pch l=LA w=WAJ m=1
MMU1_6-M_u3 ZN I VDD VDD pch l=LA w=WAJ m=1
MMU1_2-M_u3 ZN I VDD VDD pch l=LA w=WAJ m=1
.ENDS

************************************************************************
* Library Name: tcbn65lp
* Cell Name:    TIEL
* View Name:    schematic
************************************************************************

.SUBCKT TIEL VDD VSS ZN
*.PININFO ZN:O VDD:B VSS:B
MM_u2 ZN net5 VSS VSS nch l=LA w=WAE m=1
MM_u1 net5 net5 VDD VDD pch l=LA w=WAK m=1
.ENDS

************************************************************************
* Library Name: tcbn65lp
* Cell Name:    DFSNQD1
* View Name:    schematic
************************************************************************

.SUBCKT DFSNQD1 CP D Q SDN VDD VSS
*.PININFO CP:I D:I SDN:I Q:O VDD:B VSS:B
MMI32-M_u4 net44 net25 VSS VSS nch l=LA w=WAC m=1
MMI55-M_u2 net11 CP VSS VSS nch l=LA w=WE m=1
MMI60-M_u2 Q net13 VSS VSS nch l=LA w=WAC m=1
MMI32-M_u3 net7 SDN net44 VSS nch l=LA w=WAC m=1
MMI31-M_u4 net37 net13 VSS VSS nch l=LA w=WA m=1
MMI31-M_u3 net33 SDN net37 VSS nch l=LA w=WA m=1
MMI20 net7 net83 net63 VSS nch l=LA w=WN m=1
MMI23 net25 net83 net5 VSS nch l=LA w=WA m=1
MMI22 net33 net11 net63 VSS nch l=LA w=WA m=1
MMI21 net25 D net20 VSS nch l=LA w=WAC m=1
MMI25-M_u2 net13 net63 VSS VSS nch l=LA w=WAC m=1
MMI19 net20 net11 VSS VSS nch l=LA w=WW m=1
MMI24 net5 net7 VSS VSS nch l=LA w=WA m=1
MMI40-M_u2 net83 net11 VSS VSS nch l=LA w=WE m=1
MMI55-M_u3 net11 CP VDD VDD pch l=LA w=WQ m=1
MMI33 net33 net83 net63 VDD pch l=LA w=WA m=1
MMI32-M_u1 net7 SDN VDD VDD pch l=LA w=WAJ m=1
MMI60-M_u3 Q net13 VDD VDD pch l=LA w=WAJ m=1
MMI34 net25 net11 net96 VDD pch l=LA w=WA m=1
MMI30 net7 net11 net63 VDD pch l=LA w=WX m=1
MMI32-M_u2 net7 net25 VDD VDD pch l=LA w=WAJ m=1
MMI28 net81 net83 VDD VDD pch l=LA w=WAJ m=1
MMI40-M_u3 net83 net11 VDD VDD pch l=LA w=WQ m=1
MMI31-M_u2 net33 net13 VDD VDD pch l=LA w=WA m=1
MMI35 net96 net7 VDD VDD pch l=LA w=WA m=1
MMI31-M_u1 net33 SDN VDD VDD pch l=LA w=WA m=1
MMI25-M_u3 net13 net63 VDD VDD pch l=LA w=WAJ m=1
MMI26 net25 D net81 VDD pch l=LA w=WAJ m=1
.ENDS

************************************************************************
* Library Name: tcbn65lp
* Cell Name:    ND2D0
* View Name:    schematic
************************************************************************

.SUBCKT ND2D0 A1 A2 VDD VSS ZN
*.PININFO A1:I A2:I ZN:O VDD:B VSS:B
MMI0-M_u3 ZN A1 net1 VSS nch l=LA w=WE m=1
MMI0-M_u4 net1 A2 VSS VSS nch l=LA w=WE m=1
MMI0-M_u1 ZN A1 VDD VDD pch l=LA w=WQ m=1
MMI0-M_u2 ZN A2 VDD VDD pch l=LA w=WQ m=1
.ENDS

************************************************************************
* Library Name: tcbn65lp
* Cell Name:    DEL015
* View Name:    schematic
************************************************************************

.SUBCKT DEL015 I VDD VSS Z
*.PININFO I:I Z:O VDD:B VSS:B
MMI2-M_u2 Z net13 VSS VSS nch l=LA w=WAC m=1
MMI29 net25 net9 net28 VSS nch l=LA w=WAC m=1
MMI30 net28 net9 VSS VSS nch l=LA w=WAC m=1
MMI37 net17 net5 VSS VSS nch l=LA w=WAC m=1
MMI28 net13 net9 net25 VSS nch l=LA w=WAC m=1
MMI35 net9 net5 net44 VSS nch l=LA w=WAC m=1
MMI1-M_u2 net5 I VSS VSS nch l=LA w=WAC m=1
MMI36 net44 net5 net17 VSS nch l=LA w=WAC m=1
MMI2-M_u3 Z net13 VDD VDD pch l=LA w=WAJ m=1
MMI20 net57 net9 VDD VDD pch l=LA w=WAJ m=1
MMI23 net13 net9 net25 VDD pch l=LA w=WAJ m=1
MMI1-M_u3 net5 I VDD VDD pch l=LA w=WAJ m=1
MMI21 net25 net9 net57 VDD pch l=LA w=WAJ m=1
MMI32 net9 net5 net44 VDD pch l=LA w=WAJ m=1
MMI31 net44 net5 net33 VDD pch l=LA w=WAJ m=1
MMI7 net33 net5 VDD VDD pch l=LA w=WAJ m=1
.ENDS

************************************************************************
* Library Name: tcbn65lp
* Cell Name:    DFSND1
* View Name:    schematic
************************************************************************

.SUBCKT DFSND1 CP D Q QN SDN VDD VSS
*.PININFO CP:I D:I SDN:I Q:O QN:O VDD:B VSS:B
MMI32-M_u4 net57 net61 VSS VSS nch l=LA w=WAC m=1
MMI55-M_u2 net11 CP VSS VSS nch l=LA w=WE m=1
MMI60-M_u2 Q net79 VSS VSS nch l=LA w=WAC m=1
MMI32-M_u3 net97 SDN net57 VSS nch l=LA w=WAC m=1
MMI31-M_u4 net40 net79 VSS VSS nch l=LA w=WE m=1
MMI31-M_u3 net25 SDN net40 VSS nch l=LA w=WE m=1
MMI20 net97 net81 net67 VSS nch l=LA w=WM m=1
MMI23 net61 net81 net5 VSS nch l=LA w=WA m=1
MMI22 net25 net11 net67 VSS nch l=LA w=WA m=1
MMI21 net61 D net9 VSS nch l=LA w=WAC m=1
MMI25-M_u2 net79 net67 VSS VSS nch l=LA w=WAC m=1
MMI57-M_u2 QN net25 VSS VSS nch l=LA w=WAC m=1
MMI19 net9 net11 VSS VSS nch l=LA w=WW m=1
MMI24 net5 net97 VSS VSS nch l=LA w=WA m=1
MMI40-M_u2 net81 net11 VSS VSS nch l=LA w=WE m=1
MMI55-M_u3 net11 CP VDD VDD pch l=LA w=WQ m=1
MMI33 net25 net81 net67 VDD pch l=LA w=WA m=1
MMI32-M_u1 net97 SDN VDD VDD pch l=LA w=WAJ m=1
MMI60-M_u3 Q net79 VDD VDD pch l=LA w=WAJ m=1
MMI34 net61 net11 net104 VDD pch l=LA w=WA m=1
MMI30 net97 net11 net67 VDD pch l=LA w=WX m=1
MMI57-M_u3 QN net25 VDD VDD pch l=LA w=WAJ m=1
MMI32-M_u2 net97 net61 VDD VDD pch l=LA w=WAJ m=1
MMI28 net85 net81 VDD VDD pch l=LA w=WAJ m=1
MMI40-M_u3 net81 net11 VDD VDD pch l=LA w=WQ m=1
MMI31-M_u2 net25 net79 VDD VDD pch l=LA w=WQ m=1
MMI35 net104 net97 VDD VDD pch l=LA w=WA m=1
MMI31-M_u1 net25 SDN VDD VDD pch l=LA w=WQ m=1
MMI25-M_u3 net79 net67 VDD VDD pch l=LA w=WAJ m=1
MMI26 net61 D net85 VDD pch l=LA w=WAJ m=1
.ENDS

************************************************************************
* Library Name: tcbn65lp
* Cell Name:    AN2D0
* View Name:    schematic
************************************************************************

.SUBCKT AN2D0 A1 A2 VDD VSS Z
*.PININFO A1:I A2:I Z:O VDD:B VSS:B
MM_u3-M_u3 Z net5 VDD VDD pch l=LA w=WQ m=1
MM_u2-M_u1 net5 A1 VDD VDD pch l=LA w=WQ m=1
MM_u2-M_u2 net5 A2 VDD VDD pch l=LA w=WQ m=1
MM_u3-M_u2 Z net5 VSS VSS nch l=LA w=WE m=1
MM_u2-M_u4 net17 A2 VSS VSS nch l=LA w=WE m=1
MM_u2-M_u3 net5 A1 net17 VSS nch l=LA w=WE m=1
.ENDS

************************************************************************
* Library Name: tcbn65lp
* Cell Name:    DFCND1
* View Name:    schematic
************************************************************************

.SUBCKT DFCND1 CDN CP D Q QN VDD VSS
*.PININFO CDN:I CP:I D:I Q:O QN:O VDD:B VSS:B
MMI29-M_u2 QN net33 VSS VSS nch l=LA w=WAC m=1
MMI4 net53 net5 VSS VSS nch l=LA w=WZ m=1
MMI18 net33 net5 net79 VSS nch l=LA w=WA m=1
MMI21-M_u3 net95 net79 net9 VSS nch l=LA w=WAC m=1
MMI13-M_u2 net81 net25 VSS VSS nch l=LA w=WF m=1
MMI15 net81 net67 net79 VSS nch l=LA w=WF m=1
MMI14-M_u2 net33 net95 VSS VSS nch l=LA w=WE m=1
MMI32-M_u2 net67 net5 VSS VSS nch l=LA w=WE m=1
MMI5 net25 D net53 VSS nch l=LA w=WZ m=1
MMI49 net20 CDN VSS VSS nch l=LA w=WA m=1
MMI48 net17 net81 net20 VSS nch l=LA w=WA m=1
MMI27-M_u2 Q net95 VSS VSS nch l=LA w=WAC m=1
MMI21-M_u4 net9 CDN VSS VSS nch l=LA w=WAC m=1
MMI22-M_u2 net5 CP VSS VSS nch l=LA w=WE m=1
MMI47 net25 net67 net17 VSS nch l=LA w=WA m=1
MMI14-M_u3 net33 net95 VDD VDD pch l=LA w=WQ m=1
MMI22-M_u3 net5 CP VDD VDD pch l=LA w=WQ m=1
MMI32-M_u3 net67 net5 VDD VDD pch l=LA w=WQ m=1
MMI43 net72 net81 VDD VDD pch l=LA w=WA m=1
MMI6 net25 D net104 VDD pch l=LA w=WAH m=1
MMI29-M_u3 QN net33 VDD VDD pch l=LA w=WAJ m=1
MMI27-M_u3 Q net95 VDD VDD pch l=LA w=WAJ m=1
MMI44 net72 CDN VDD VDD pch l=LA w=WA m=1
MMI17 net33 net67 net79 VDD pch l=LA w=WA m=1
MMI13-M_u3 net81 net25 VDD VDD pch l=LA w=WJ m=1
MMI21-M_u1 net95 net79 VDD VDD pch l=LA w=WAA m=1
MMI16 net81 net5 net79 VDD pch l=LA w=WO m=1
MMI45 net25 net5 net72 VDD pch l=LA w=WA m=1
MMI7 net104 net67 VDD VDD pch l=LA w=WAH m=1
MMI21-M_u2 net95 CDN VDD VDD pch l=LA w=WAA m=1
.ENDS

************************************************************************
* Library Name: tcbn65lp
* Cell Name:    AN2D2
* View Name:    schematic
************************************************************************

.SUBCKT AN2D2 A1 A2 VDD VSS Z
*.PININFO A1:I A2:I Z:O VDD:B VSS:B
MM_u3_1-M_u3 Z net9 VDD VDD pch l=LA w=WAJ m=1
MM_u2-M_u2 net9 A2 VDD VDD pch l=LA w=WAJ m=1
MM_u3_0-M_u3 Z net9 VDD VDD pch l=LA w=WAJ m=1
MM_u2-M_u1 net9 A1 VDD VDD pch l=LA w=WAJ m=1
MM_u2-M_u4 net29 A2 VSS VSS nch l=LA w=WAC m=1
MM_u2-M_u3 net9 A1 net29 VSS nch l=LA w=WAC m=1
MM_u3_1-M_u2 Z net9 VSS VSS nch l=LA w=WAC m=1
MM_u3_0-M_u2 Z net9 VSS VSS nch l=LA w=WAC m=1
.ENDS

************************************************************************
* Library Name: tcbn65lp
* Cell Name:    CKBD4
* View Name:    schematic
************************************************************************

.SUBCKT CKBD4 I VDD VSS Z
*.PININFO I:I Z:O VDD:B VSS:B
MM_u15_1 net11 I VSS VSS nch l=LA w=WW m=1
MMU23_1 Z net11 VSS VSS nch l=LA w=WW m=1
MMU23_3 Z net11 VSS VSS nch l=LA w=WW m=1
MMU23_0 Z net11 VSS VSS nch l=LA w=WW m=1
MMU23_2 Z net11 VSS VSS nch l=LA w=WW m=1
MM_u15_0 net11 I VSS VSS nch l=LA w=WW m=1
MMU21_0 Z net11 VDD VDD pch l=LA w=WAJ m=1
MMU21_1 Z net11 VDD VDD pch l=LA w=WAJ m=1
MM_u3_0 net11 I VDD VDD pch l=LA w=WAJ m=1
MMU21_3 Z net11 VDD VDD pch l=LA w=WAJ m=1
MM_u3_1 net11 I VDD VDD pch l=LA w=WAJ m=1
MMU21_2 Z net11 VDD VDD pch l=LA w=WAJ m=1
.ENDS

************************************************************************
* Library Name: tcbn65lp
* Cell Name:    ND3D3
* View Name:    schematic
************************************************************************

.SUBCKT ND3D3 A1 A2 A3 VDD VSS ZN
*.PININFO A1:I A2:I A3:I ZN:O VDD:B VSS:B
MMI0_0-M_u3 ZN A3 VDD VDD pch l=LA w=WAJ m=1
MMI0_0-M_u1 ZN A1 VDD VDD pch l=LA w=WAJ m=1
MMI0_2-M_u3 ZN A3 VDD VDD pch l=LA w=WAJ m=1
MMI0_2-M_u2 ZN A2 VDD VDD pch l=LA w=WAJ m=1
MMI0_1-M_u2 ZN A2 VDD VDD pch l=LA w=WAJ m=1
MMI0_1-M_u3 ZN A3 VDD VDD pch l=LA w=WAJ m=1
MMI0_0-M_u2 ZN A2 VDD VDD pch l=LA w=WAJ m=1
MMI0_2-M_u1 ZN A1 VDD VDD pch l=LA w=WAJ m=1
MMI0_1-M_u1 ZN A1 VDD VDD pch l=LA w=WAJ m=1
MMI0_1-M_u5 net69 A2 net72 VSS nch l=LA w=WAC m=1
MMI0_2-M_u6 net56 A3 VSS VSS nch l=LA w=WAC m=1
MMI0_1-M_u4 ZN A1 net69 VSS nch l=LA w=WAC m=1
MMI0_2-M_u4 ZN A1 net53 VSS nch l=LA w=WAC m=1
MMI0_2-M_u5 net53 A2 net56 VSS nch l=LA w=WAC m=1
MMI0_1-M_u6 net72 A3 VSS VSS nch l=LA w=WAC m=1
MMI0_0-M_u6 net44 A3 VSS VSS nch l=LA w=WAC m=1
MMI0_0-M_u5 net40 A2 net44 VSS nch l=LA w=WAC m=1
MMI0_0-M_u4 ZN A1 net40 VSS nch l=LA w=WAC m=1
.ENDS

************************************************************************
* Library Name: tcbn65lp
* Cell Name:    AN3D1
* View Name:    schematic
************************************************************************

.SUBCKT AN3D1 A1 A2 A3 VDD VSS Z
*.PININFO A1:I A2:I A3:I Z:O VDD:B VSS:B
MM_u4-M_u6 net13 A3 VSS VSS nch l=LA w=WE m=1
MM_u3-M_u2 Z net11 VSS VSS nch l=LA w=WAC m=1
MM_u4-M_u5 net5 A2 net13 VSS nch l=LA w=WE m=1
MM_u4-M_u4 net11 A1 net5 VSS nch l=LA w=WE m=1
MM_u3-M_u3 Z net11 VDD VDD pch l=LA w=WAJ m=1
MM_u4-M_u3 net11 A3 VDD VDD pch l=LA w=WQ m=1
MM_u4-M_u1 net11 A1 VDD VDD pch l=LA w=WQ m=1
MM_u4-M_u2 net11 A2 VDD VDD pch l=LA w=WQ m=1
.ENDS

************************************************************************
* Library Name: modelx
* Cell Name:    MDLL_CKGEN_V1
* View Name:    schematic
************************************************************************

.SUBCKT MDLL_CKGEN_V1 EN_DLL FREE_RUN MD_SAR MD_TRK REF_CLK SAR_EN SCLK0
+ SEL_RST TRK_EN VDD VSS
*.PININFO EN_DLL:I MD_SAR:I MD_TRK:I SCLK0:I FREE_RUN:O REF_CLK:O SAR_EN:O
*.PININFO SEL_RST:O TRK_EN:O VDD:B VSS:B
XI9 net31 VDD VSS net17 INVD0
XI40 net042 EN_DLL MD_SAR VDD VSS SAR_EN AN3D2
XI45 SCLK net010 net25 VDD VSS net048 AN3D2
XI25 net010 VDD VSS FREE_RUN INVD1
XI5 net37 VDD VSS net25 INVD1
XI0 MD_SAR MD_TRK VDD VSS net36 NR2D0
XI43 SCLK0 EN_DLL net032 net045 VDD VSS DFND1
XI44 net048 VDD VSS SEL_RST INVD8
XI15 VDD VSS net32 TIEL
XI22 SCLK net30 net27 net14 VDD VSS DFSNQD1
XI21 SCLK net29 net30 net14 VDD VSS DFSNQD1
XI20 SCLK net27 net021 net14 VDD VSS DFSNQD1
XI19 SCLK net34 net33 net14 VDD VSS DFSNQD1
XI18 SCLK net33 net29 net14 VDD VSS DFSNQD1
XI17 SCLK net35 net34 net14 VDD VSS DFSNQD1
XI16 SCLK net32 net35 net14 VDD VSS DFSNQD1
XI24 net36 EN_DLL VDD VSS net010 ND2D0
XI8 EN_DLL VDD VSS net31 DEL015
XI4 SCLK VDD VSS net37 DEL015
XI27 SCLK net021 net042 net026 net14 VDD VSS DFSND1
XI28 net026 EN_DLL VDD VSS TRK_RST AN2D0
XI30 TRK_RST net020 net039 net027 net039 VDD VSS DFCND1
XI29 TRK_RST SCLK net015 net020 net015 VDD VSS DFCND1
XI36 net032 SCLK0 VDD VSS SCLK AN2D2
XI35 SCLK VDD VSS REF_CLK CKBD4
XI38 EN_DLL net17 MD_SAR VDD VSS net14 ND3D3
XI42 net027 net015 MD_TRK VDD VSS TRK_EN AN3D1
.ENDS

************************************************************************
* Library Name: tcbn65lp
* Cell Name:    MUX2D1
* View Name:    schematic
************************************************************************

.SUBCKT MUX2D1 I0 I1 S VDD VSS Z
*.PININFO I0:I I1:I S:I Z:O VDD:B VSS:B
MMI14-M_u3 net5 I1 VDD VDD pch l=LA w=WAJ m=1
MMI16-M_u3 net37 I0 VDD VDD pch l=LA w=WW m=1
MMU29-M_u3 Z net27 VDD VDD pch l=LA w=WAJ m=1
MMI15-M_u3 net9 S VDD VDD pch l=LA w=WQ m=1
MMI13-M_u2 net5 net9 net27 VDD pch l=LA w=WY m=1
MMU18-M_u2 net37 S net27 VDD pch l=LA w=WAE m=1
MMU18-M_u3 net37 net9 net27 VSS nch l=LA w=WQ m=1
MMI15-M_u2 net9 S VSS VSS nch l=LA w=WE m=1
MMI16-M_u2 net37 I0 VSS VSS nch l=LA w=WL m=1
MMI13-M_u3 net5 S net27 VSS nch l=LA w=WN m=1
MMI14-M_u2 net5 I1 VSS VSS nch l=LA w=WAC m=1
MMU29-M_u2 Z net27 VSS VSS nch l=LA w=WAC m=1
.ENDS

************************************************************************
* Library Name: tcbn65lp
* Cell Name:    DEL0
* View Name:    schematic
************************************************************************

.SUBCKT DEL0 I VDD VSS Z
*.PININFO I:I Z:O VDD:B VSS:B
MMU7-M_u2 net11 net25 VSS VSS nch l=LB w=WAC m=1
MMI2-M_u2 Z net11 VSS VSS nch l=LA w=WAC m=1
MMI1-M_u2 net5 I VSS VSS nch l=LA w=WAC m=1
MMU5-M_u2 net25 net5 VSS VSS nch l=LB w=WAC m=1
MMI2-M_u3 Z net11 VDD VDD pch l=LA w=WAJ m=1
MMU5-M_u3 net25 net5 VDD VDD pch l=LB w=WAJ m=1
MMI1-M_u3 net5 I VDD VDD pch l=LA w=WAJ m=1
MMU7-M_u3 net11 net25 VDD VDD pch l=LB w=WAJ m=1
.ENDS

************************************************************************
* Library Name: tcbn65lp
* Cell Name:    MUX2D0
* View Name:    schematic
************************************************************************

.SUBCKT MUX2D0 I0 I1 S VDD VSS Z
*.PININFO I0:I I1:I S:I Z:O VDD:B VSS:B
MMU29-M_u3 Z net5 VDD VDD pch l=LA w=WQ m=1
MMI15-M_u3 net17 S VDD VDD pch l=LA w=WP m=1
MMI111 net13 I0 VDD VDD pch l=LA w=WQ m=1
MMI24 net9 I1 VDD VDD pch l=LA w=WQ m=1
MMI5 net5 S net13 VDD pch l=LA w=WQ m=1
MMI25 net5 net17 net9 VDD pch l=LA w=WQ m=1
MMI15-M_u2 net17 S VSS VSS nch l=LA w=WE m=1
MMI20 net36 I1 VSS VSS nch l=LA w=WE m=1
MMI12 net5 net17 net25 VSS nch l=LA w=WE m=1
MMI21 net5 S net36 VSS nch l=LA w=WE m=1
MMU29-M_u2 Z net5 VSS VSS nch l=LA w=WE m=1
MMI19 net25 I0 VSS VSS nch l=LA w=WE m=1
.ENDS

************************************************************************
* Library Name: tcbn65lp
* Cell Name:    DEL005
* View Name:    schematic
************************************************************************

.SUBCKT DEL005 I VDD VSS Z
*.PININFO I:I Z:O VDD:B VSS:B
MMI2-M_u3 Z net11 VDD VDD pch l=LA w=WAJ m=1
MMI3 net5 I VDD VDD pch l=LA w=WAJ m=1
MMI10 net11 I net5 VDD pch l=LA w=WAJ m=1
MMI13 net5 I VSS VSS nch l=LA w=WAC m=1
MMI2-M_u2 Z net11 VSS VSS nch l=LA w=WAC m=1
MMI12 net11 I net5 VSS nch l=LA w=WAC m=1
.ENDS

************************************************************************
* Library Name: modelx
* Cell Name:    DEL_3x1_BIN
* View Name:    schematic
************************************************************************

.SUBCKT DEL_3x1_BIN DEL_IN DEL_OUT LSB<3> LSB<2> LSB<1> VDD VSS
*.PININFO DEL_IN:I LSB<3>:I LSB<2>:I LSB<1>:I DEL_OUT:O VDD:B VSS:B
XI9 net020 net027 net033 VDD VSS DEL_OUT MUX2D1
XI1 net010 VDD VSS net032 DEL0
XI19 LSB<3> VDD VSS net013 DEL0
XI20 LSB<2> VDD VSS net035 DEL015
XI5 net030 VDD VSS net029 DEL015
XI21 LSB<1> VDD VSS net033 DEL015
XI3 DEL_IN net032 net013 VDD VSS net019 MUX2D0
XI6 net019 net029 net035 VDD VSS net020 MUX2D0
XI8 net028 VDD VSS net027 DEL005
XI14 DEL_IN VDD VSS net05 INVD0
XI16 net019 VDD VSS net018 INVD0
XI17 net020 VDD VSS net023 INVD0
XI15 net018 LSB<2> VDD VSS net030 ND2D0
XI13 net05 LSB<3> VDD VSS net010 ND2D0
XI18 net023 LSB<1> VDD VSS net028 ND2D0
.ENDS

************************************************************************
* Library Name: tcbn65lp
* Cell Name:    OR2D0
* View Name:    schematic
************************************************************************

.SUBCKT OR2D0 A1 A2 VDD VSS Z
*.PININFO A1:I A2:I Z:O VDD:B VSS:B
MMU1-M_u2 Z net5 VSS VSS nch l=LA w=WE m=1
MM_u7-M_u4 net5 A1 VSS VSS nch l=LA w=WE m=1
MM_u7-M_u3 net5 A2 VSS VSS nch l=LA w=WE m=1
MMU1-M_u3 Z net5 VDD VDD pch l=LA w=WQ m=1
MM_u7-M_u1 net17 A2 VDD VDD pch l=LA w=WQ m=1
MM_u7-M_u2 net5 A1 net17 VDD pch l=LA w=WQ m=1
.ENDS

************************************************************************
* Library Name: tcbn65lp
* Cell Name:    DEL1
* View Name:    schematic
************************************************************************

.SUBCKT DEL1 I VDD VSS Z
*.PININFO I:I Z:O VDD:B VSS:B
MMU7-M_u2 net11 net25 VSS VSS nch l=LD w=WAC m=1
MMI2-M_u2 Z net11 VSS VSS nch l=LA w=WV m=1
MMI1-M_u2 net5 I VSS VSS nch l=LA w=WAC m=1
MMU5-M_u2 net25 net5 VSS VSS nch l=LD w=WAC m=1
MMI2-M_u3 Z net11 VDD VDD pch l=LA w=WAJ m=1
MMU5-M_u3 net25 net5 VDD VDD pch l=LD w=WAJ m=1
MMI1-M_u3 net5 I VDD VDD pch l=LA w=WAJ m=1
MMU7-M_u3 net11 net25 VDD VDD pch l=LD w=WAJ m=1
.ENDS

************************************************************************
* Library Name: tcbn65lp
* Cell Name:    MUX4D0
* View Name:    schematic
************************************************************************

.SUBCKT MUX4D0 I0 I1 I2 I3 S0 S1 VDD VSS Z
*.PININFO I0:I I1:I I2:I I3:I S0:I S1:I Z:O VDD:B VSS:B
MMU18-M_u3 Z net20 VDD VDD pch l=LA w=WQ m=1
MMI53-M_u2 net97 S1 net20 VDD pch l=LA w=WQ m=1
MMI51-M_u3 net37 I3 VDD VDD pch l=LA w=WQ m=1
MMI55-M_u2 net37 net61 net104 VDD pch l=LA w=WQ m=1
MMI50-M_u3 net33 S1 VDD VDD pch l=LA w=WQ m=1
MMI48-M_u3 net61 S0 VDD VDD pch l=LA w=WQ m=1
MMI49-M_u3 net81 I2 VDD VDD pch l=LA w=WQ m=1
MMI47-M_u3 net5 I1 VDD VDD pch l=LA w=WQ m=1
MMI56-M_u2 net104 net33 net20 VDD pch l=LA w=WQ m=1
MMI54-M_u2 net81 S0 net104 VDD pch l=LA w=WQ m=1
MMI40-M_u2 net9 S0 net97 VDD pch l=LA w=WQ m=1
MMI52-M_u2 net5 net61 net97 VDD pch l=LA w=WQ m=1
MMI46-M_u3 net9 I0 VDD VDD pch l=LA w=WQ m=1
MMI55-M_u3 net37 S0 net104 VSS nch l=LA w=WE m=1
MMI53-M_u3 net97 net33 net20 VSS nch l=LA w=WE m=1
MMI47-M_u2 net5 I1 VSS VSS nch l=LA w=WE m=1
MMI51-M_u2 net37 I3 VSS VSS nch l=LA w=WE m=1
MMI52-M_u3 net5 S0 net97 VSS nch l=LA w=WE m=1
MMI54-M_u3 net81 net61 net104 VSS nch l=LA w=WD m=1
MMI56-M_u3 net104 S1 net20 VSS nch l=LA w=WE m=1
MMI40-M_u3 net9 net61 net97 VSS nch l=LA w=WC m=1
MMI49-M_u2 net81 I2 VSS VSS nch l=LA w=WD m=1
MMU18-M_u2 Z net20 VSS VSS nch l=LA w=WE m=1
MMI48-M_u2 net61 S0 VSS VSS nch l=LA w=WD m=1
MMI46-M_u2 net9 I0 VSS VSS nch l=LA w=WC m=1
MMI50-M_u2 net33 S1 VSS VSS nch l=LA w=WA m=1
.ENDS

************************************************************************
* Library Name: tcbn65lp
* Cell Name:    BUFFD0
* View Name:    schematic
************************************************************************

.SUBCKT BUFFD0 I VDD VSS Z
*.PININFO I:I Z:O VDD:B VSS:B
MMI2-M_u2 net5 I VSS VSS nch l=LA w=WE m=1
MMI1-M_u2 Z net5 VSS VSS nch l=LA w=WE m=1
MMI2-M_u3 net5 I VDD VDD pch l=LA w=WQ m=1
MMI1-M_u3 Z net5 VDD VDD pch l=LA w=WQ m=1
.ENDS

************************************************************************
* Library Name: modelx
* Cell Name:    DEL_3x1
* View Name:    schematic
************************************************************************

.SUBCKT DEL_3x1 DEL_IN DEL_OUT EN SEL0 SEL1 VDD VSS
*.PININFO DEL_IN:I EN:I SEL0:I SEL1:I DEL_OUT:O VDD:B VSS:B
XI18 SEL1 SEL0 VDD VSS S2T<3> AN2D0
XI8 net12 S2T<3> VDD VSS net18 AN2D0
XI6 net11 S2T<2> VDD VSS net19 AN2D0
XI4 net21 S2T<1> VDD VSS net20 AN2D0
XI2 DEL_IN S2T<0> VDD VSS net21 AN2D0
XI9 net18 VDD VSS net17 DEL1
XI7 net19 VDD VSS net12 DEL1
XI5 net20 VDD VSS net11 DEL1
XI11 net21 net11 net12 net17 SEL0 SEL1 VDD VSS DEL_OUT MUX4D0
XI17 SEL1 VDD VSS S2T<2> BUFFD0
XI16 EN VDD VSS S2T<0> BUFFD0
XI14 SEL1 SEL0 VDD VSS S2T<1> OR2D0
.ENDS

************************************************************************
* Library Name: modelx
* Cell Name:    DEL_4x1
* View Name:    schematic
************************************************************************

.SUBCKT DEL_4x1 DEL_IN DEL_OUT EN SEL0 SEL1 VDD VSS
*.PININFO DEL_IN:I EN:I SEL0:I SEL1:I DEL_OUT:O VDD:B VSS:B
XI18 SEL1 SEL0 VDD VSS S2T<3> AN2D0
XI8 net12 S2T<3> VDD VSS net18 AN2D0
XI6 net11 S2T<2> VDD VSS net19 AN2D0
XI4 net10 S2T<1> VDD VSS net20 AN2D0
XI2 DEL_IN S2T<0> VDD VSS net21 AN2D0
XI9 net18 VDD VSS net17 DEL1
XI7 net19 VDD VSS net12 DEL1
XI5 net20 VDD VSS net11 DEL1
XI3 net21 VDD VSS net10 DEL1
XI11 net10 net11 net12 net17 SEL0 SEL1 VDD VSS DEL_OUT MUX4D0
XI17 SEL1 VDD VSS S2T<2> BUFFD0
XI16 EN VDD VSS S2T<0> BUFFD0
XI14 SEL1 SEL0 VDD VSS S2T<1> OR2D0
.ENDS

************************************************************************
* Library Name: tcbn65lp
* Cell Name:    CKBD2
* View Name:    schematic
************************************************************************

.SUBCKT CKBD2 I VDD VSS Z
*.PININFO I:I Z:O VDD:B VSS:B
MMU23_1 Z net5 VSS VSS nch l=LA w=WW m=1
MM_u15 net5 I VSS VSS nch l=LA w=WW m=1
MMU23_0 Z net5 VSS VSS nch l=LA w=WW m=1
MM_u3 net5 I VDD VDD pch l=LA w=WAJ m=1
MMU21_0 Z net5 VDD VDD pch l=LA w=WAJ m=1
MMU21_1 Z net5 VDD VDD pch l=LA w=WAJ m=1
.ENDS

************************************************************************
* Library Name: tcbn65lp
* Cell Name:    MUX4ND0
* View Name:    schematic
************************************************************************

.SUBCKT MUX4ND0 I0 I1 I2 I3 S0 S1 VDD VSS ZN
*.PININFO I0:I I1:I I2:I I3:I S0:I S1:I ZN:O VDD:B VSS:B
MMI47-M_u2 net17 I2 VSS VSS nch l=LA w=WF m=1
MMI51-M_u3 net20 S1 ZN VSS nch l=LA w=WE m=1
MMI55-M_u2 net61 I0 VSS VSS nch l=LA w=WG m=1
MMI50-M_u3 net33 net83 ZN VSS nch l=LA w=WE m=1
MMI48-M_u3 net61 net67 net33 VSS nch l=LA w=WF m=1
MMI58-M_u2 net67 S0 VSS VSS nch l=LA w=WD m=1
MMI49-M_u3 net5 S0 net33 VSS nch l=LA w=WE m=1
MMI52-M_u3 net17 net67 net20 VSS nch l=LA w=WF m=1
MMI54-M_u3 net9 S0 net20 VSS nch l=LA w=WE m=1
MMI57-M_u2 net9 I3 VSS VSS nch l=LA w=WAC m=1
MMI56-M_u2 net5 I1 VSS VSS nch l=LA w=WAC m=1
MMU18-M_u2 net83 S1 VSS VSS nch l=LA w=WE m=1
MMI55-M_u3 net61 I0 VDD VDD pch l=LA w=WY m=1
MMU18-M_u3 net83 S1 VDD VDD pch l=LA w=WQ m=1
MMI58-M_u3 net67 S0 VDD VDD pch l=LA w=WQ m=1
MMI51-M_u2 net20 net83 ZN VDD pch l=LA w=WQ m=1
MMI57-M_u3 net9 I3 VDD VDD pch l=LA w=WAJ m=1
MMI56-M_u3 net5 I1 VDD VDD pch l=LA w=WAJ m=1
MMI47-M_u3 net17 I2 VDD VDD pch l=LA w=WY m=1
MMI49-M_u2 net5 net67 net33 VDD pch l=LA w=WQ m=1
MMI48-M_u2 net61 S0 net33 VDD pch l=LA w=WQ m=1
MMI54-M_u2 net9 net67 net20 VDD pch l=LA w=WQ m=1
MMI52-M_u2 net17 S0 net20 VDD pch l=LA w=WQ m=1
MMI50-M_u2 net33 S1 ZN VDD pch l=LA w=WQ m=1
.ENDS

************************************************************************
* Library Name: modelx
* Cell Name:    DEL_7b
* View Name:    schematic
************************************************************************

.SUBCKT DEL_7b CKOUT EN LSB<3> LSB<2> LSB<1> REF_CLK SEL0 SEL1 SEL2 SEL3
+ SEL_DL VDD VSS
*.PININFO EN:I LSB<3>:I LSB<2>:I LSB<1>:I REF_CLK:I SEL0:I SEL1:I SEL2:I
*.PININFO SEL3:I SEL_DL:I CKOUT:O VDD:B VSS:B
XI29 net87 net82 LSB<3> LSB<2> LSB<1> VDD VSS DEL_3x1_BIN
XI14 SEL3 SEL2 VDD VSS S2T<1> OR2D0
XI23 SEL1 S2T<1> VDD VSS net90 OR2D0
XI27 SEL1 S2T<3> VDD VSS net88 OR2D0
XI25 SEL1 S2T<2> VDD VSS net89 OR2D0
XI24 SEL0 S2T<1> VDD VSS net83 OR2D0
XI28 SEL0 S2T<3> VDD VSS net85 OR2D0
XI26 SEL0 S2T<2> VDD VSS net84 OR2D0
XI0 REF_CLK net82 SEL_DL VDD VSS net91 MUX2D0
XI19 net91 net76 S2T<0> net83 net90 VDD VSS DEL_3x1
XI22 net80 net86 S2T<3> SEL0 SEL1 VDD VSS DEL_4x1
XI21 net78 net80 S2T<2> net85 net88 VDD VSS DEL_4x1
XI20 net76 net78 S2T<1> net84 net89 VDD VSS DEL_4x1
XI18 SEL3 SEL2 VDD VSS S2T<3> AN2D0
XI16 EN VDD VSS S2T<0> BUFFD0
XI17 SEL3 VDD VSS S2T<2> BUFFD0
XI2 net82 VDD VSS CKOUT CKBD2
XI3 net76 net78 net80 net86 SEL2 SEL3 VDD VSS net87 MUX4ND0
.ENDS

************************************************************************
* Library Name: tcbn65lp
* Cell Name:    CKND0
* View Name:    schematic
************************************************************************

.SUBCKT CKND0 I VDD VSS ZN
*.PININFO I:I ZN:O VDD:B VSS:B
MM_u2 ZN I VSS VSS nch l=LA w=WA m=1
MM_u1 ZN I VDD VDD pch l=LA w=WQ m=1
.ENDS

************************************************************************
* Library Name: tcbn65lp
* Cell Name:    AO22D0
* View Name:    schematic
************************************************************************

.SUBCKT AO22D0 A1 A2 B1 B2 VDD VSS Z
*.PININFO A1:I A2:I B1:I B2:I Z:O VDD:B VSS:B
MMI23 net17 A2 VSS VSS nch l=LA w=WE m=1
MMI8-M_u2 Z net5 VSS VSS nch l=LA w=WE m=1
MMI16 net5 B1 net1 VSS nch l=LA w=WE m=1
MMI24 net5 A1 net17 VSS nch l=LA w=WE m=1
MMI22 net1 B2 VSS VSS nch l=LA w=WE m=1
MMI20 net5 A1 net33 VDD pch l=LA w=WQ m=1
MM_u2 net33 B2 VDD VDD pch l=LA w=WQ m=1
MMI19 net5 A2 net33 VDD pch l=LA w=WQ m=1
MMI8-M_u3 Z net5 VDD VDD pch l=LA w=WQ m=1
MMI21 net33 B1 VDD VDD pch l=LA w=WQ m=1
.ENDS
